###############################################################################
# Belokoneva, E.L.;Shcherbakova, Yu.K. (2003)
# Zhurnal Neorganicheskoi Khimii 48, 960-968
# Electron density in synthetic eskolaite Cr2 O3 with a corundum structure \
# and its relation to antiferromagnetic properties
# 
# CIF by ICSD-for-WWW,  Copyright 2003 FIZ-Karlsruhe & A.W.Hewat (hewat@ill.fr)
# NOT TO BE PUBLISHED IN ANY FORM. See http://icsd.ill.fr/icsd/conditions.html
###############################################################################

data_261801-ICSD
_database_code_ICSD                261801
_audit_creation_date               2012-02-01
_chemical_name_systematic
'Dichromium trioxide'
_chemical_formula_structural       
'Cr2 O3'
_chemical_formula_sum              
'Cr2 O3'
_publ_section_title                
'Cr2 O3'
loop_
_citation_id
_citation_journal_abbrev
_citation_year
_citation_journal_volume
_citation_page_first
_citation_page_last
_citation_journal_id_ASTM
primary 'Zhurnal Neorganicheskoi Khimii' 2003 48 960 968 ZNOKAQ
loop_
_publ_author_name
Belokoneva, E.L.;Shcherbakova, Yu.K.
_cell_length_a                     4.953(2)
_cell_length_b                     4.953(2)
_cell_length_c                     13.578(4)
_cell_angle_alpha                  90.
_cell_angle_beta                   90.
_cell_angle_gamma                  120.
_cell_volume                       288.4701
_cell_formula_units_Z              6.000
_symmetry_space_group_name_H-M     'R -3 c'
_symmetry_Int_Tables_number        167
_refine_ls_R_factor_all            0.0226
loop_
_symmetry_equiv_pos_site_id
_symmetry_equiv_pos_as_xyz
   1   'x-y, -y, -z+1/2'
   2   '-x, -x+y, -z+1/2'
   3   'y, x, -z+1/2'
   4   'x-y, x, -z'
   5   'y, -x+y, -z'
   6   '-x, -y, -z'
   7   '-x+y, y, z+1/2'
   8   'x, x-y, z+1/2'
   9   '-y, -x, z+1/2'
  10   '-x+y, -x, z'
  11   '-y, x-y, z'
  12   'x, y, z'
  13   'x-y+2/3, -y+1/3, -z+5/6'
  14   '-x+2/3, -x+y+1/3, -z+5/6'
  15   'y+2/3, x+1/3, -z+5/6'
  16   'x-y+2/3, x+1/3, -z+1/3'
  17   'y+2/3, -x+y+1/3, -z+1/3'
  18   '-x+2/3, -y+1/3, -z+1/3'
  19   '-x+y+2/3, y+1/3, z+5/6'
  20   'x+2/3, x-y+1/3, z+5/6'
  21   '-y+2/3, -x+1/3, z+5/6'
  22   '-x+y+2/3, -x+1/3, z+1/3'
  23   '-y+2/3, x-y+1/3, z+1/3'
  24   'x+2/3, y+1/3, z+1/3'
  25   'x-y+1/3, -y+2/3, -z+1/6'
  26   '-x+1/3, -x+y+2/3, -z+1/6'
  27   'y+1/3, x+2/3, -z+1/6'
  28   'x-y+1/3, x+2/3, -z+2/3'
  29   'y+1/3, -x+y+2/3, -z+2/3'
  30   '-x+1/3, -y+2/3, -z+2/3'
  31   '-x+y+1/3, y+2/3, z+1/6'
  32   'x+1/3, x-y+2/3, z+1/6'
  33   '-y+1/3, -x+2/3, z+1/6'
  34   '-x+y+1/3, -x+2/3, z+2/3'
  35   '-y+1/3, x-y+2/3, z+2/3'
  36   'x+1/3, y+2/3, z+2/3'
loop_
_atom_type_symbol
_atom_type_oxidation_number
Cr3+     3.
O2-     -2.
loop_
_atom_site_label
_atom_site_type_symbol
_atom_site_symmetry_multiplicity
_atom_site_Wyckoff_symbol
_atom_site_fract_x
_atom_site_fract_y
_atom_site_fract_z
_atom_site_B_iso_or_equiv
_atom_site_occupancy
Cr1 Cr3+ 12 c 0 0 0.34745(2) 0. 1.
O1 O2- 18 e 0.69410(9) 0 0.25 0. 1.
loop_
_atom_site_aniso_label
_atom_site_aniso_type_symbol
_atom_site_aniso_U_11
_atom_site_aniso_U_22
_atom_site_aniso_U_33
_atom_site_aniso_U_12
_atom_site_aniso_U_13
_atom_site_aniso_U_23
Cr1 Cr3+ 0.0025(3) 0.0025(3) 0.0023(3) 0.00125 0.0000 0.0000
O1 O2- 0.0040(4) 0.0040(6) 0.0041(6) 0.0020 0.0000 0.0000
#End of data_261801-ICSD

###############################################################################
# Rekhi, S.;Dubrovinskii, L.S.;Ahuja, R.;Saxena, S.K.;Johansson, B. (2000)
# Journal of Alloys Compd. 302, 16-20
# Experimental and theoretical investigations on eskolaite (Cr O3) at high \
# pressures
# 
# CIF by ICSD-for-WWW,  Copyright 2003 FIZ-Karlsruhe & A.W.Hewat (hewat@ill.fr)
# NOT TO BE PUBLISHED IN ANY FORM. See http://icsd.ill.fr/icsd/conditions.html
###############################################################################

data_107035-ICSD
_database_code_ICSD                107035
_audit_creation_date               2005-10-01
_chemical_name_systematic
'Chromium oxide'
_chemical_formula_structural       
'Cr2 O3'
_chemical_formula_sum              
'Cr2 O3'
_publ_section_title                
'Cr2 O3'
loop_
_citation_id
_citation_journal_abbrev
_citation_year
_citation_journal_volume
_citation_page_first
_citation_page_last
_citation_journal_id_ASTM
primary 'Journal of Alloys Compd.' 2000 302 16 20 JALCEU
loop_
_publ_author_name
Rekhi, S.;Dubrovinskii, L.S.;Ahuja, R.;Saxena, S.K.;Johansson, B.
_cell_length_a                     4.8364(18)
_cell_length_b                     4.8364
_cell_length_c                     13.255(4)
_cell_angle_alpha                  90.
_cell_angle_beta                   90.
_cell_angle_gamma                  120.
_cell_volume                       268.5108
_cell_formula_units_Z              6.000
_symmetry_space_group_name_H-M     'R -3 c'
_symmetry_Int_Tables_number        167
_refine_ls_R_factor_all            0.0901
loop_
_symmetry_equiv_pos_site_id
_symmetry_equiv_pos_as_xyz
   1   'x-y, -y, -z+1/2'
   2   '-x, -x+y, -z+1/2'
   3   'y, x, -z+1/2'
   4   'x-y, x, -z'
   5   'y, -x+y, -z'
   6   '-x, -y, -z'
   7   '-x+y, y, z+1/2'
   8   'x, x-y, z+1/2'
   9   '-y, -x, z+1/2'
  10   '-x+y, -x, z'
  11   '-y, x-y, z'
  12   'x, y, z'
  13   'x-y+2/3, -y+1/3, -z+5/6'
  14   '-x+2/3, -x+y+1/3, -z+5/6'
  15   'y+2/3, x+1/3, -z+5/6'
  16   'x-y+2/3, x+1/3, -z+1/3'
  17   'y+2/3, -x+y+1/3, -z+1/3'
  18   '-x+2/3, -y+1/3, -z+1/3'
  19   '-x+y+2/3, y+1/3, z+5/6'
  20   'x+2/3, x-y+1/3, z+5/6'
  21   '-y+2/3, -x+1/3, z+5/6'
  22   '-x+y+2/3, -x+1/3, z+1/3'
  23   '-y+2/3, x-y+1/3, z+1/3'
  24   'x+2/3, y+1/3, z+1/3'
  25   'x-y+1/3, -y+2/3, -z+1/6'
  26   '-x+1/3, -x+y+2/3, -z+1/6'
  27   'y+1/3, x+2/3, -z+1/6'
  28   'x-y+1/3, x+2/3, -z+2/3'
  29   'y+1/3, -x+y+2/3, -z+2/3'
  30   '-x+1/3, -y+2/3, -z+2/3'
  31   '-x+y+1/3, y+2/3, z+1/6'
  32   'x+1/3, x-y+2/3, z+1/6'
  33   '-y+1/3, -x+2/3, z+1/6'
  34   '-x+y+1/3, -x+2/3, z+2/3'
  35   '-y+1/3, x-y+2/3, z+2/3'
  36   'x+1/3, y+2/3, z+2/3'
loop_
_atom_type_symbol
_atom_type_oxidation_number
Cr3+     3.
O2-     -2.
loop_
_atom_site_label
_atom_site_type_symbol
_atom_site_symmetry_multiplicity
_atom_site_Wyckoff_symbol
_atom_site_fract_x
_atom_site_fract_y
_atom_site_fract_z
_atom_site_B_iso_or_equiv
_atom_site_occupancy
Cr1 Cr3+ 12 c 0 0 0.347(1) 0. 1.
O1 O2- 18 e 0.312(1) 0 0.25 0. 1.
#End of data_107035-ICSD

###############################################################################
# Hill, A.H.;Harrison, A.;Dickinson, C.;Zhou Wuzong;Kockelmann, W. (2010)
# Microporous and Mesoporous Materials 130, 280-286
# Crystallographic and magnetic studies of mesoporous eskolaite, Cr2 O3
# 
# CIF by ICSD-for-WWW,  Copyright 2003 FIZ-Karlsruhe & A.W.Hewat (hewat@ill.fr)
# NOT TO BE PUBLISHED IN ANY FORM. See http://icsd.ill.fr/icsd/conditions.html
###############################################################################

data_167280-ICSD
_database_code_ICSD                167280
_audit_creation_date               2010-08-01
_chemical_name_systematic
'Chromium oxide - mesoporous'
_chemical_formula_structural       
'Cr2 O3'
_chemical_formula_sum              
'Cr2 O3'
_publ_section_title                
'Cr2 O3'
loop_
_citation_id
_citation_journal_abbrev
_citation_year
_citation_journal_volume
_citation_page_first
_citation_page_last
_citation_journal_id_ASTM
primary 'Microporous and Mesoporous Materials' 2010 130 280 286 MIMMFJ
loop_
_publ_author_name
Hill, A.H.;Harrison, A.;Dickinson, C.;Zhou Wuzong;Kockelmann, W.
_cell_length_a                     4.956648(11)
_cell_length_b                     4.956648(11)
_cell_length_c                     13.5969(3)
_cell_angle_alpha                  90.
_cell_angle_beta                   90.
_cell_angle_gamma                  120.
_cell_volume                       289.291
_cell_formula_units_Z              6.000
_symmetry_space_group_name_H-M     'R -3 c'
_symmetry_Int_Tables_number        167
_refine_ls_R_factor_all            0.0433
loop_
_symmetry_equiv_pos_site_id
_symmetry_equiv_pos_as_xyz
   1   'x-y, -y, -z+1/2'
   2   '-x, -x+y, -z+1/2'
   3   'y, x, -z+1/2'
   4   'x-y, x, -z'
   5   'y, -x+y, -z'
   6   '-x, -y, -z'
   7   '-x+y, y, z+1/2'
   8   'x, x-y, z+1/2'
   9   '-y, -x, z+1/2'
  10   '-x+y, -x, z'
  11   '-y, x-y, z'
  12   'x, y, z'
  13   'x-y+2/3, -y+1/3, -z+5/6'
  14   '-x+2/3, -x+y+1/3, -z+5/6'
  15   'y+2/3, x+1/3, -z+5/6'
  16   'x-y+2/3, x+1/3, -z+1/3'
  17   'y+2/3, -x+y+1/3, -z+1/3'
  18   '-x+2/3, -y+1/3, -z+1/3'
  19   '-x+y+2/3, y+1/3, z+5/6'
  20   'x+2/3, x-y+1/3, z+5/6'
  21   '-y+2/3, -x+1/3, z+5/6'
  22   '-x+y+2/3, -x+1/3, z+1/3'
  23   '-y+2/3, x-y+1/3, z+1/3'
  24   'x+2/3, y+1/3, z+1/3'
  25   'x-y+1/3, -y+2/3, -z+1/6'
  26   '-x+1/3, -x+y+2/3, -z+1/6'
  27   'y+1/3, x+2/3, -z+1/6'
  28   'x-y+1/3, x+2/3, -z+2/3'
  29   'y+1/3, -x+y+2/3, -z+2/3'
  30   '-x+1/3, -y+2/3, -z+2/3'
  31   '-x+y+1/3, y+2/3, z+1/6'
  32   'x+1/3, x-y+2/3, z+1/6'
  33   '-y+1/3, -x+2/3, z+1/6'
  34   '-x+y+1/3, -x+2/3, z+2/3'
  35   '-y+1/3, x-y+2/3, z+2/3'
  36   'x+1/3, y+2/3, z+2/3'
loop_
_atom_type_symbol
_atom_type_oxidation_number
Cr3+     3.
O2-     -2.
loop_
_atom_site_label
_atom_site_type_symbol
_atom_site_symmetry_multiplicity
_atom_site_Wyckoff_symbol
_atom_site_fract_x
_atom_site_fract_y
_atom_site_fract_z
_atom_site_B_iso_or_equiv
_atom_site_occupancy
Cr1 Cr3+ 12 c 0 0 0.34627(11) 0.00205(16) 1.
O1 O2- 18 e 0.30846(15) 0 0.250 0.00384(12) 1.
#End of data_167280-ICSD

###############################################################################
# Hill, A.H.;Harrison, A.;Dickinson, C.;Zhou Wuzong;Kockelmann, W. (2010)
# Microporous and Mesoporous Materials 130, 280-286
# Crystallographic and magnetic studies of mesoporous eskolaite, Cr2 O3
# 
# CIF by ICSD-for-WWW,  Copyright 2003 FIZ-Karlsruhe & A.W.Hewat (hewat@ill.fr)
# NOT TO BE PUBLISHED IN ANY FORM. See http://icsd.ill.fr/icsd/conditions.html
###############################################################################

data_167277-ICSD
_database_code_ICSD                167277
_audit_creation_date               2010-08-01
_chemical_name_systematic
'Chromium oxide'
_chemical_formula_structural       
'Cr2 O3'
_chemical_formula_sum              
'Cr2 O3'
_publ_section_title                
'Cr2 O3'
loop_
_citation_id
_citation_journal_abbrev
_citation_year
_citation_journal_volume
_citation_page_first
_citation_page_last
_citation_journal_id_ASTM
primary 'Microporous and Mesoporous Materials' 2010 130 280 286 MIMMFJ
loop_
_publ_author_name
Hill, A.H.;Harrison, A.;Dickinson, C.;Zhou Wuzong;Kockelmann, W.
_cell_length_a                     4.94844(3)
_cell_length_b                     4.94844(3)
_cell_length_c                     13.59952(16)
_cell_angle_alpha                  90.
_cell_angle_beta                   90.
_cell_angle_gamma                  120.
_cell_volume                       288.391
_cell_formula_units_Z              6.000
_symmetry_space_group_name_H-M     'R -3 c'
_symmetry_Int_Tables_number        167
_refine_ls_R_factor_all            0.0604
loop_
_symmetry_equiv_pos_site_id
_symmetry_equiv_pos_as_xyz
   1   'x-y, -y, -z+1/2'
   2   '-x, -x+y, -z+1/2'
   3   'y, x, -z+1/2'
   4   'x-y, x, -z'
   5   'y, -x+y, -z'
   6   '-x, -y, -z'
   7   '-x+y, y, z+1/2'
   8   'x, x-y, z+1/2'
   9   '-y, -x, z+1/2'
  10   '-x+y, -x, z'
  11   '-y, x-y, z'
  12   'x, y, z'
  13   'x-y+2/3, -y+1/3, -z+5/6'
  14   '-x+2/3, -x+y+1/3, -z+5/6'
  15   'y+2/3, x+1/3, -z+5/6'
  16   'x-y+2/3, x+1/3, -z+1/3'
  17   'y+2/3, -x+y+1/3, -z+1/3'
  18   '-x+2/3, -y+1/3, -z+1/3'
  19   '-x+y+2/3, y+1/3, z+5/6'
  20   'x+2/3, x-y+1/3, z+5/6'
  21   '-y+2/3, -x+1/3, z+5/6'
  22   '-x+y+2/3, -x+1/3, z+1/3'
  23   '-y+2/3, x-y+1/3, z+1/3'
  24   'x+2/3, y+1/3, z+1/3'
  25   'x-y+1/3, -y+2/3, -z+1/6'
  26   '-x+1/3, -x+y+2/3, -z+1/6'
  27   'y+1/3, x+2/3, -z+1/6'
  28   'x-y+1/3, x+2/3, -z+2/3'
  29   'y+1/3, -x+y+2/3, -z+2/3'
  30   '-x+1/3, -y+2/3, -z+2/3'
  31   '-x+y+1/3, y+2/3, z+1/6'
  32   'x+1/3, x-y+2/3, z+1/6'
  33   '-y+1/3, -x+2/3, z+1/6'
  34   '-x+y+1/3, -x+2/3, z+2/3'
  35   '-y+1/3, x-y+2/3, z+2/3'
  36   'x+1/3, y+2/3, z+2/3'
loop_
_atom_type_symbol
_atom_type_oxidation_number
Cr3+     3.
O2-     -2.
loop_
_atom_site_label
_atom_site_type_symbol
_atom_site_symmetry_multiplicity
_atom_site_Wyckoff_symbol
_atom_site_fract_x
_atom_site_fract_y
_atom_site_fract_z
_atom_site_B_iso_or_equiv
_atom_site_occupancy
Cr1 Cr3+ 12 c 0 0 0.34721(8) 0.0029(3) 1.
O1 O2- 18 e 0.30663(14) 0 0.250 0.0026(2) 1.
#End of data_167277-ICSD

###############################################################################
# Hill, A.H.;Harrison, A.;Dickinson, C.;Zhou Wuzong;Kockelmann, W. (2010)
# Microporous and Mesoporous Materials 130, 280-286
# Crystallographic and magnetic studies of mesoporous eskolaite, Cr2 O3
# 
# CIF by ICSD-for-WWW,  Copyright 2003 FIZ-Karlsruhe & A.W.Hewat (hewat@ill.fr)
# NOT TO BE PUBLISHED IN ANY FORM. See http://icsd.ill.fr/icsd/conditions.html
###############################################################################

data_167276-ICSD
_database_code_ICSD                167276
_audit_creation_date               2010-08-01
_chemical_name_systematic
'Chromium oxide'
_chemical_formula_structural       
'Cr2 O3'
_chemical_formula_sum              
'Cr2 O3'
_publ_section_title                
'Cr2 O3'
loop_
_citation_id
_citation_journal_abbrev
_citation_year
_citation_journal_volume
_citation_page_first
_citation_page_last
_citation_journal_id_ASTM
primary 'Microporous and Mesoporous Materials' 2010 130 280 286 MIMMFJ
loop_
_publ_author_name
Hill, A.H.;Harrison, A.;Dickinson, C.;Zhou Wuzong;Kockelmann, W.
_cell_length_a                     4.94847(3)
_cell_length_b                     4.94847(3)
_cell_length_c                     13.59932(16)
_cell_angle_alpha                  90.
_cell_angle_beta                   90.
_cell_angle_gamma                  120.
_cell_volume                       288.4008
_cell_formula_units_Z              6.000
_symmetry_space_group_name_H-M     'R -3 c'
_symmetry_Int_Tables_number        167
_refine_ls_R_factor_all            0.0596
loop_
_symmetry_equiv_pos_site_id
_symmetry_equiv_pos_as_xyz
   1   'x-y, -y, -z+1/2'
   2   '-x, -x+y, -z+1/2'
   3   'y, x, -z+1/2'
   4   'x-y, x, -z'
   5   'y, -x+y, -z'
   6   '-x, -y, -z'
   7   '-x+y, y, z+1/2'
   8   'x, x-y, z+1/2'
   9   '-y, -x, z+1/2'
  10   '-x+y, -x, z'
  11   '-y, x-y, z'
  12   'x, y, z'
  13   'x-y+2/3, -y+1/3, -z+5/6'
  14   '-x+2/3, -x+y+1/3, -z+5/6'
  15   'y+2/3, x+1/3, -z+5/6'
  16   'x-y+2/3, x+1/3, -z+1/3'
  17   'y+2/3, -x+y+1/3, -z+1/3'
  18   '-x+2/3, -y+1/3, -z+1/3'
  19   '-x+y+2/3, y+1/3, z+5/6'
  20   'x+2/3, x-y+1/3, z+5/6'
  21   '-y+2/3, -x+1/3, z+5/6'
  22   '-x+y+2/3, -x+1/3, z+1/3'
  23   '-y+2/3, x-y+1/3, z+1/3'
  24   'x+2/3, y+1/3, z+1/3'
  25   'x-y+1/3, -y+2/3, -z+1/6'
  26   '-x+1/3, -x+y+2/3, -z+1/6'
  27   'y+1/3, x+2/3, -z+1/6'
  28   'x-y+1/3, x+2/3, -z+2/3'
  29   'y+1/3, -x+y+2/3, -z+2/3'
  30   '-x+1/3, -y+2/3, -z+2/3'
  31   '-x+y+1/3, y+2/3, z+1/6'
  32   'x+1/3, x-y+2/3, z+1/6'
  33   '-y+1/3, -x+2/3, z+1/6'
  34   '-x+y+1/3, -x+2/3, z+2/3'
  35   '-y+1/3, x-y+2/3, z+2/3'
  36   'x+1/3, y+2/3, z+2/3'
loop_
_atom_type_symbol
_atom_type_oxidation_number
Cr3+     3.
O2-     -2.
loop_
_atom_site_label
_atom_site_type_symbol
_atom_site_symmetry_multiplicity
_atom_site_Wyckoff_symbol
_atom_site_fract_x
_atom_site_fract_y
_atom_site_fract_z
_atom_site_B_iso_or_equiv
_atom_site_occupancy
Cr1 Cr3+ 12 c 0 0 0.34725(8) 0.0031(3) 1.
O1 O2- 18 e 0.30670(14) 0 0.250 0.0028(2) 1.
#End of data_167276-ICSD

###############################################################################
# Hill, A.H.;Harrison, A.;Dickinson, C.;Zhou Wuzong;Kockelmann, W. (2010)
# Microporous and Mesoporous Materials 130, 280-286
# Crystallographic and magnetic studies of mesoporous eskolaite, Cr2 O3
# 
# CIF by ICSD-for-WWW,  Copyright 2003 FIZ-Karlsruhe & A.W.Hewat (hewat@ill.fr)
# NOT TO BE PUBLISHED IN ANY FORM. See http://icsd.ill.fr/icsd/conditions.html
###############################################################################

data_167275-ICSD
_database_code_ICSD                167275
_audit_creation_date               2010-08-01
_chemical_name_systematic
'Chromium oxide'
_chemical_formula_structural       
'Cr2 O3'
_chemical_formula_sum              
'Cr2 O3'
_publ_section_title                
'Cr2 O3'
loop_
_citation_id
_citation_journal_abbrev
_citation_year
_citation_journal_volume
_citation_page_first
_citation_page_last
_citation_journal_id_ASTM
primary 'Microporous and Mesoporous Materials' 2010 130 280 286 MIMMFJ
loop_
_publ_author_name
Hill, A.H.;Harrison, A.;Dickinson, C.;Zhou Wuzong;Kockelmann, W.
_cell_length_a                     4.94890(3)
_cell_length_b                     4.94890(3)
_cell_length_c                     13.59905(15)
_cell_angle_alpha                  90.
_cell_angle_beta                   90.
_cell_angle_gamma                  120.
_cell_volume                       288.4404
_cell_formula_units_Z              6.000
_symmetry_space_group_name_H-M     'R -3 c'
_symmetry_Int_Tables_number        167
_refine_ls_R_factor_all            0.056
loop_
_symmetry_equiv_pos_site_id
_symmetry_equiv_pos_as_xyz
   1   'x-y, -y, -z+1/2'
   2   '-x, -x+y, -z+1/2'
   3   'y, x, -z+1/2'
   4   'x-y, x, -z'
   5   'y, -x+y, -z'
   6   '-x, -y, -z'
   7   '-x+y, y, z+1/2'
   8   'x, x-y, z+1/2'
   9   '-y, -x, z+1/2'
  10   '-x+y, -x, z'
  11   '-y, x-y, z'
  12   'x, y, z'
  13   'x-y+2/3, -y+1/3, -z+5/6'
  14   '-x+2/3, -x+y+1/3, -z+5/6'
  15   'y+2/3, x+1/3, -z+5/6'
  16   'x-y+2/3, x+1/3, -z+1/3'
  17   'y+2/3, -x+y+1/3, -z+1/3'
  18   '-x+2/3, -y+1/3, -z+1/3'
  19   '-x+y+2/3, y+1/3, z+5/6'
  20   'x+2/3, x-y+1/3, z+5/6'
  21   '-y+2/3, -x+1/3, z+5/6'
  22   '-x+y+2/3, -x+1/3, z+1/3'
  23   '-y+2/3, x-y+1/3, z+1/3'
  24   'x+2/3, y+1/3, z+1/3'
  25   'x-y+1/3, -y+2/3, -z+1/6'
  26   '-x+1/3, -x+y+2/3, -z+1/6'
  27   'y+1/3, x+2/3, -z+1/6'
  28   'x-y+1/3, x+2/3, -z+2/3'
  29   'y+1/3, -x+y+2/3, -z+2/3'
  30   '-x+1/3, -y+2/3, -z+2/3'
  31   '-x+y+1/3, y+2/3, z+1/6'
  32   'x+1/3, x-y+2/3, z+1/6'
  33   '-y+1/3, -x+2/3, z+1/6'
  34   '-x+y+1/3, -x+2/3, z+2/3'
  35   '-y+1/3, x-y+2/3, z+2/3'
  36   'x+1/3, y+2/3, z+2/3'
loop_
_atom_type_symbol
_atom_type_oxidation_number
Cr3+     3.
O2-     -2.
loop_
_atom_site_label
_atom_site_type_symbol
_atom_site_symmetry_multiplicity
_atom_site_Wyckoff_symbol
_atom_site_fract_x
_atom_site_fract_y
_atom_site_fract_z
_atom_site_B_iso_or_equiv
_atom_site_occupancy
Cr1 Cr3+ 12 c 0 0 0.34759(7) 0.0029(3) 1.
O1 O2- 18 e 0.30665(14) 0 0.250 0.0027(2) 1.
#End of data_167275-ICSD

###############################################################################
# Hill, A.H.;Harrison, A.;Dickinson, C.;Zhou Wuzong;Kockelmann, W. (2010)
# Microporous and Mesoporous Materials 130, 280-286
# Crystallographic and magnetic studies of mesoporous eskolaite, Cr2 O3
# 
# CIF by ICSD-for-WWW,  Copyright 2003 FIZ-Karlsruhe & A.W.Hewat (hewat@ill.fr)
# NOT TO BE PUBLISHED IN ANY FORM. See http://icsd.ill.fr/icsd/conditions.html
###############################################################################

data_167274-ICSD
_database_code_ICSD                167274
_audit_creation_date               2010-08-01
_chemical_name_systematic
'Chromium oxide'
_chemical_formula_structural       
'Cr2 O3'
_chemical_formula_sum              
'Cr2 O3'
_publ_section_title                
'Cr2 O3'
loop_
_citation_id
_citation_journal_abbrev
_citation_year
_citation_journal_volume
_citation_page_first
_citation_page_last
_citation_journal_id_ASTM
primary 'Microporous and Mesoporous Materials' 2010 130 280 286 MIMMFJ
loop_
_publ_author_name
Hill, A.H.;Harrison, A.;Dickinson, C.;Zhou Wuzong;Kockelmann, W.
_cell_length_a                     4.95027(3)
_cell_length_b                     4.95027(3)
_cell_length_c                     13.59807(15)
_cell_angle_alpha                  90.
_cell_angle_beta                   90.
_cell_angle_gamma                  120.
_cell_volume                       288.5809
_cell_formula_units_Z              6.000
_symmetry_space_group_name_H-M     'R -3 c'
_symmetry_Int_Tables_number        167
_refine_ls_R_factor_all            0.0532
loop_
_symmetry_equiv_pos_site_id
_symmetry_equiv_pos_as_xyz
   1   'x-y, -y, -z+1/2'
   2   '-x, -x+y, -z+1/2'
   3   'y, x, -z+1/2'
   4   'x-y, x, -z'
   5   'y, -x+y, -z'
   6   '-x, -y, -z'
   7   '-x+y, y, z+1/2'
   8   'x, x-y, z+1/2'
   9   '-y, -x, z+1/2'
  10   '-x+y, -x, z'
  11   '-y, x-y, z'
  12   'x, y, z'
  13   'x-y+2/3, -y+1/3, -z+5/6'
  14   '-x+2/3, -x+y+1/3, -z+5/6'
  15   'y+2/3, x+1/3, -z+5/6'
  16   'x-y+2/3, x+1/3, -z+1/3'
  17   'y+2/3, -x+y+1/3, -z+1/3'
  18   '-x+2/3, -y+1/3, -z+1/3'
  19   '-x+y+2/3, y+1/3, z+5/6'
  20   'x+2/3, x-y+1/3, z+5/6'
  21   '-y+2/3, -x+1/3, z+5/6'
  22   '-x+y+2/3, -x+1/3, z+1/3'
  23   '-y+2/3, x-y+1/3, z+1/3'
  24   'x+2/3, y+1/3, z+1/3'
  25   'x-y+1/3, -y+2/3, -z+1/6'
  26   '-x+1/3, -x+y+2/3, -z+1/6'
  27   'y+1/3, x+2/3, -z+1/6'
  28   'x-y+1/3, x+2/3, -z+2/3'
  29   'y+1/3, -x+y+2/3, -z+2/3'
  30   '-x+1/3, -y+2/3, -z+2/3'
  31   '-x+y+1/3, y+2/3, z+1/6'
  32   'x+1/3, x-y+2/3, z+1/6'
  33   '-y+1/3, -x+2/3, z+1/6'
  34   '-x+y+1/3, -x+2/3, z+2/3'
  35   '-y+1/3, x-y+2/3, z+2/3'
  36   'x+1/3, y+2/3, z+2/3'
loop_
_atom_type_symbol
_atom_type_oxidation_number
Cr3+     3.
O2-     -2.
loop_
_atom_site_label
_atom_site_type_symbol
_atom_site_symmetry_multiplicity
_atom_site_Wyckoff_symbol
_atom_site_fract_x
_atom_site_fract_y
_atom_site_fract_z
_atom_site_B_iso_or_equiv
_atom_site_occupancy
Cr1 Cr3+ 12 c 0 0 0.34762(8) 0.0034(3) 1.
O1 O2- 18 e 0.30647(13) 0 0.250 0.0031(2) 1.
#End of data_167274-ICSD

###############################################################################
# Hill, A.H.;Harrison, A.;Dickinson, C.;Zhou Wuzong;Kockelmann, W. (2010)
# Microporous and Mesoporous Materials 130, 280-286
# Crystallographic and magnetic studies of mesoporous eskolaite, Cr2 O3
# 
# CIF by ICSD-for-WWW,  Copyright 2003 FIZ-Karlsruhe & A.W.Hewat (hewat@ill.fr)
# NOT TO BE PUBLISHED IN ANY FORM. See http://icsd.ill.fr/icsd/conditions.html
###############################################################################

data_167273-ICSD
_database_code_ICSD                167273
_audit_creation_date               2010-08-01
_chemical_name_systematic
'Chromium oxide'
_chemical_formula_structural       
'Cr2 O3'
_chemical_formula_sum              
'Cr2 O3'
_publ_section_title                
'Cr2 O3'
loop_
_citation_id
_citation_journal_abbrev
_citation_year
_citation_journal_volume
_citation_page_first
_citation_page_last
_citation_journal_id_ASTM
primary 'Microporous and Mesoporous Materials' 2010 130 280 286 MIMMFJ
loop_
_publ_author_name
Hill, A.H.;Harrison, A.;Dickinson, C.;Zhou Wuzong;Kockelmann, W.
_cell_length_a                     4.95189(3)
_cell_length_b                     4.95189(3)
_cell_length_c                     13.59721(15)
_cell_angle_alpha                  90.
_cell_angle_beta                   90.
_cell_angle_gamma                  120.
_cell_volume                       288.751
_cell_formula_units_Z              6.000
_symmetry_space_group_name_H-M     'R -3 c'
_symmetry_Int_Tables_number        167
_refine_ls_R_factor_all            0.0523
loop_
_symmetry_equiv_pos_site_id
_symmetry_equiv_pos_as_xyz
   1   'x-y, -y, -z+1/2'
   2   '-x, -x+y, -z+1/2'
   3   'y, x, -z+1/2'
   4   'x-y, x, -z'
   5   'y, -x+y, -z'
   6   '-x, -y, -z'
   7   '-x+y, y, z+1/2'
   8   'x, x-y, z+1/2'
   9   '-y, -x, z+1/2'
  10   '-x+y, -x, z'
  11   '-y, x-y, z'
  12   'x, y, z'
  13   'x-y+2/3, -y+1/3, -z+5/6'
  14   '-x+2/3, -x+y+1/3, -z+5/6'
  15   'y+2/3, x+1/3, -z+5/6'
  16   'x-y+2/3, x+1/3, -z+1/3'
  17   'y+2/3, -x+y+1/3, -z+1/3'
  18   '-x+2/3, -y+1/3, -z+1/3'
  19   '-x+y+2/3, y+1/3, z+5/6'
  20   'x+2/3, x-y+1/3, z+5/6'
  21   '-y+2/3, -x+1/3, z+5/6'
  22   '-x+y+2/3, -x+1/3, z+1/3'
  23   '-y+2/3, x-y+1/3, z+1/3'
  24   'x+2/3, y+1/3, z+1/3'
  25   'x-y+1/3, -y+2/3, -z+1/6'
  26   '-x+1/3, -x+y+2/3, -z+1/6'
  27   'y+1/3, x+2/3, -z+1/6'
  28   'x-y+1/3, x+2/3, -z+2/3'
  29   'y+1/3, -x+y+2/3, -z+2/3'
  30   '-x+1/3, -y+2/3, -z+2/3'
  31   '-x+y+1/3, y+2/3, z+1/6'
  32   'x+1/3, x-y+2/3, z+1/6'
  33   '-y+1/3, -x+2/3, z+1/6'
  34   '-x+y+1/3, -x+2/3, z+2/3'
  35   '-y+1/3, x-y+2/3, z+2/3'
  36   'x+1/3, y+2/3, z+2/3'
loop_
_atom_type_symbol
_atom_type_oxidation_number
Cr3+     3.
O2-     -2.
loop_
_atom_site_label
_atom_site_type_symbol
_atom_site_symmetry_multiplicity
_atom_site_Wyckoff_symbol
_atom_site_fract_x
_atom_site_fract_y
_atom_site_fract_z
_atom_site_B_iso_or_equiv
_atom_site_occupancy
Cr1 Cr3+ 12 c 0 0 0.34802(8) 0.0036(3) 1.
O1 O2- 18 e 0.30631(13) 0 0.250 0.0035(2) 1.
#End of data_167273-ICSD

###############################################################################
# Hill, A.H.;Harrison, A.;Dickinson, C.;Zhou Wuzong;Kockelmann, W. (2010)
# Microporous and Mesoporous Materials 130, 280-286
# Crystallographic and magnetic studies of mesoporous eskolaite, Cr2 O3
# 
# CIF by ICSD-for-WWW,  Copyright 2003 FIZ-Karlsruhe & A.W.Hewat (hewat@ill.fr)
# NOT TO BE PUBLISHED IN ANY FORM. See http://icsd.ill.fr/icsd/conditions.html
###############################################################################

data_167272-ICSD
_database_code_ICSD                167272
_audit_creation_date               2010-08-01
_chemical_name_systematic
'Chromium oxide'
_chemical_formula_structural       
'Cr2 O3'
_chemical_formula_sum              
'Cr2 O3'
_publ_section_title                
'Cr2 O3'
loop_
_citation_id
_citation_journal_abbrev
_citation_year
_citation_journal_volume
_citation_page_first
_citation_page_last
_citation_journal_id_ASTM
primary 'Microporous and Mesoporous Materials' 2010 130 280 286 MIMMFJ
loop_
_publ_author_name
Hill, A.H.;Harrison, A.;Dickinson, C.;Zhou Wuzong;Kockelmann, W.
_cell_length_a                     4.95398(3)
_cell_length_b                     4.95398(3)
_cell_length_c                     13.59580(15)
_cell_angle_alpha                  90.
_cell_angle_beta                   90.
_cell_angle_gamma                  120.
_cell_volume                       288.9706
_cell_formula_units_Z              6.000
_symmetry_space_group_name_H-M     'R -3 c'
_symmetry_Int_Tables_number        167
_refine_ls_R_factor_all            0.0532
loop_
_symmetry_equiv_pos_site_id
_symmetry_equiv_pos_as_xyz
   1   'x-y, -y, -z+1/2'
   2   '-x, -x+y, -z+1/2'
   3   'y, x, -z+1/2'
   4   'x-y, x, -z'
   5   'y, -x+y, -z'
   6   '-x, -y, -z'
   7   '-x+y, y, z+1/2'
   8   'x, x-y, z+1/2'
   9   '-y, -x, z+1/2'
  10   '-x+y, -x, z'
  11   '-y, x-y, z'
  12   'x, y, z'
  13   'x-y+2/3, -y+1/3, -z+5/6'
  14   '-x+2/3, -x+y+1/3, -z+5/6'
  15   'y+2/3, x+1/3, -z+5/6'
  16   'x-y+2/3, x+1/3, -z+1/3'
  17   'y+2/3, -x+y+1/3, -z+1/3'
  18   '-x+2/3, -y+1/3, -z+1/3'
  19   '-x+y+2/3, y+1/3, z+5/6'
  20   'x+2/3, x-y+1/3, z+5/6'
  21   '-y+2/3, -x+1/3, z+5/6'
  22   '-x+y+2/3, -x+1/3, z+1/3'
  23   '-y+2/3, x-y+1/3, z+1/3'
  24   'x+2/3, y+1/3, z+1/3'
  25   'x-y+1/3, -y+2/3, -z+1/6'
  26   '-x+1/3, -x+y+2/3, -z+1/6'
  27   'y+1/3, x+2/3, -z+1/6'
  28   'x-y+1/3, x+2/3, -z+2/3'
  29   'y+1/3, -x+y+2/3, -z+2/3'
  30   '-x+1/3, -y+2/3, -z+2/3'
  31   '-x+y+1/3, y+2/3, z+1/6'
  32   'x+1/3, x-y+2/3, z+1/6'
  33   '-y+1/3, -x+2/3, z+1/6'
  34   '-x+y+1/3, -x+2/3, z+2/3'
  35   '-y+1/3, x-y+2/3, z+2/3'
  36   'x+1/3, y+2/3, z+2/3'
loop_
_atom_type_symbol
_atom_type_oxidation_number
Cr3+     3.
O2-     -2.
loop_
_atom_site_label
_atom_site_type_symbol
_atom_site_symmetry_multiplicity
_atom_site_Wyckoff_symbol
_atom_site_fract_x
_atom_site_fract_y
_atom_site_fract_z
_atom_site_B_iso_or_equiv
_atom_site_occupancy
Cr1 Cr3+ 12 c 0 0 0.34816(8) 0.0042(3) 1.
O1 O2- 18 e 0.30624(13) 0 0.250 0.0038(2) 1.
#End of data_167272-ICSD

###############################################################################
# Hill, A.H.;Harrison, A.;Dickinson, C.;Zhou Wuzong;Kockelmann, W. (2010)
# Microporous and Mesoporous Materials 130, 280-286
# Crystallographic and magnetic studies of mesoporous eskolaite, Cr2 O3
# 
# CIF by ICSD-for-WWW,  Copyright 2003 FIZ-Karlsruhe & A.W.Hewat (hewat@ill.fr)
# NOT TO BE PUBLISHED IN ANY FORM. See http://icsd.ill.fr/icsd/conditions.html
###############################################################################

data_167271-ICSD
_database_code_ICSD                167271
_audit_creation_date               2010-08-01
_chemical_name_systematic
'Chromium oxide'
_chemical_formula_structural       
'Cr2 O3'
_chemical_formula_sum              
'Cr2 O3'
_publ_section_title                
'Cr2 O3'
loop_
_citation_id
_citation_journal_abbrev
_citation_year
_citation_journal_volume
_citation_page_first
_citation_page_last
_citation_journal_id_ASTM
primary 'Microporous and Mesoporous Materials' 2010 130 280 286 MIMMFJ
loop_
_publ_author_name
Hill, A.H.;Harrison, A.;Dickinson, C.;Zhou Wuzong;Kockelmann, W.
_cell_length_a                     4.95555(3)
_cell_length_b                     4.95555(3)
_cell_length_c                     13.59450(15)
_cell_angle_alpha                  90.
_cell_angle_beta                   90.
_cell_angle_gamma                  120.
_cell_volume                       289.1307
_cell_formula_units_Z              6.000
_symmetry_space_group_name_H-M     'R -3 c'
_symmetry_Int_Tables_number        167
_refine_ls_R_factor_all            0.0532
loop_
_symmetry_equiv_pos_site_id
_symmetry_equiv_pos_as_xyz
   1   'x-y, -y, -z+1/2'
   2   '-x, -x+y, -z+1/2'
   3   'y, x, -z+1/2'
   4   'x-y, x, -z'
   5   'y, -x+y, -z'
   6   '-x, -y, -z'
   7   '-x+y, y, z+1/2'
   8   'x, x-y, z+1/2'
   9   '-y, -x, z+1/2'
  10   '-x+y, -x, z'
  11   '-y, x-y, z'
  12   'x, y, z'
  13   'x-y+2/3, -y+1/3, -z+5/6'
  14   '-x+2/3, -x+y+1/3, -z+5/6'
  15   'y+2/3, x+1/3, -z+5/6'
  16   'x-y+2/3, x+1/3, -z+1/3'
  17   'y+2/3, -x+y+1/3, -z+1/3'
  18   '-x+2/3, -y+1/3, -z+1/3'
  19   '-x+y+2/3, y+1/3, z+5/6'
  20   'x+2/3, x-y+1/3, z+5/6'
  21   '-y+2/3, -x+1/3, z+5/6'
  22   '-x+y+2/3, -x+1/3, z+1/3'
  23   '-y+2/3, x-y+1/3, z+1/3'
  24   'x+2/3, y+1/3, z+1/3'
  25   'x-y+1/3, -y+2/3, -z+1/6'
  26   '-x+1/3, -x+y+2/3, -z+1/6'
  27   'y+1/3, x+2/3, -z+1/6'
  28   'x-y+1/3, x+2/3, -z+2/3'
  29   'y+1/3, -x+y+2/3, -z+2/3'
  30   '-x+1/3, -y+2/3, -z+2/3'
  31   '-x+y+1/3, y+2/3, z+1/6'
  32   'x+1/3, x-y+2/3, z+1/6'
  33   '-y+1/3, -x+2/3, z+1/6'
  34   '-x+y+1/3, -x+2/3, z+2/3'
  35   '-y+1/3, x-y+2/3, z+2/3'
  36   'x+1/3, y+2/3, z+2/3'
loop_
_atom_type_symbol
_atom_type_oxidation_number
Cr3+     3.
O2-     -2.
loop_
_atom_site_label
_atom_site_type_symbol
_atom_site_symmetry_multiplicity
_atom_site_Wyckoff_symbol
_atom_site_fract_x
_atom_site_fract_y
_atom_site_fract_z
_atom_site_B_iso_or_equiv
_atom_site_occupancy
Cr1 Cr3+ 12 c 0 0 0.34813(8) 0.0051(3) 1.
O1 O2- 18 e 0.30598(13) 0 0.250 0.0045(2) 1.
#End of data_167271-ICSD

###############################################################################
# Hill, A.H.;Harrison, A.;Dickinson, C.;Zhou Wuzong;Kockelmann, W. (2010)
# Microporous and Mesoporous Materials 130, 280-286
# Crystallographic and magnetic studies of mesoporous eskolaite, Cr2 O3
# 
# CIF by ICSD-for-WWW,  Copyright 2003 FIZ-Karlsruhe & A.W.Hewat (hewat@ill.fr)
# NOT TO BE PUBLISHED IN ANY FORM. See http://icsd.ill.fr/icsd/conditions.html
###############################################################################

data_167270-ICSD
_database_code_ICSD                167270
_audit_creation_date               2010-08-01
_chemical_name_systematic
'Chromium oxide'
_chemical_formula_structural       
'Cr2 O3'
_chemical_formula_sum              
'Cr2 O3'
_publ_section_title                
'Cr2 O3'
loop_
_citation_id
_citation_journal_abbrev
_citation_year
_citation_journal_volume
_citation_page_first
_citation_page_last
_citation_journal_id_ASTM
primary 'Microporous and Mesoporous Materials' 2010 130 280 286 MIMMFJ
loop_
_publ_author_name
Hill, A.H.;Harrison, A.;Dickinson, C.;Zhou Wuzong;Kockelmann, W.
_cell_length_a                     4.95688(3)
_cell_length_b                     4.95688(3)
_cell_length_c                     13.59349(15)
_cell_angle_alpha                  90.
_cell_angle_beta                   90.
_cell_angle_gamma                  120.
_cell_volume                       289.2603
_cell_formula_units_Z              6.000
_symmetry_space_group_name_H-M     'R -3 c'
_symmetry_Int_Tables_number        167
_refine_ls_R_factor_all            0.0514
loop_
_symmetry_equiv_pos_site_id
_symmetry_equiv_pos_as_xyz
   1   'x-y, -y, -z+1/2'
   2   '-x, -x+y, -z+1/2'
   3   'y, x, -z+1/2'
   4   'x-y, x, -z'
   5   'y, -x+y, -z'
   6   '-x, -y, -z'
   7   '-x+y, y, z+1/2'
   8   'x, x-y, z+1/2'
   9   '-y, -x, z+1/2'
  10   '-x+y, -x, z'
  11   '-y, x-y, z'
  12   'x, y, z'
  13   'x-y+2/3, -y+1/3, -z+5/6'
  14   '-x+2/3, -x+y+1/3, -z+5/6'
  15   'y+2/3, x+1/3, -z+5/6'
  16   'x-y+2/3, x+1/3, -z+1/3'
  17   'y+2/3, -x+y+1/3, -z+1/3'
  18   '-x+2/3, -y+1/3, -z+1/3'
  19   '-x+y+2/3, y+1/3, z+5/6'
  20   'x+2/3, x-y+1/3, z+5/6'
  21   '-y+2/3, -x+1/3, z+5/6'
  22   '-x+y+2/3, -x+1/3, z+1/3'
  23   '-y+2/3, x-y+1/3, z+1/3'
  24   'x+2/3, y+1/3, z+1/3'
  25   'x-y+1/3, -y+2/3, -z+1/6'
  26   '-x+1/3, -x+y+2/3, -z+1/6'
  27   'y+1/3, x+2/3, -z+1/6'
  28   'x-y+1/3, x+2/3, -z+2/3'
  29   'y+1/3, -x+y+2/3, -z+2/3'
  30   '-x+1/3, -y+2/3, -z+2/3'
  31   '-x+y+1/3, y+2/3, z+1/6'
  32   'x+1/3, x-y+2/3, z+1/6'
  33   '-y+1/3, -x+2/3, z+1/6'
  34   '-x+y+1/3, -x+2/3, z+2/3'
  35   '-y+1/3, x-y+2/3, z+2/3'
  36   'x+1/3, y+2/3, z+2/3'
loop_
_atom_type_symbol
_atom_type_oxidation_number
Cr3+     3.
O2-     -2.
loop_
_atom_site_label
_atom_site_type_symbol
_atom_site_symmetry_multiplicity
_atom_site_Wyckoff_symbol
_atom_site_fract_x
_atom_site_fract_y
_atom_site_fract_z
_atom_site_B_iso_or_equiv
_atom_site_occupancy
Cr1 Cr3+ 12 c 0 0 0.34823(8) 0.0055(3) 1.
O1 O2- 18 e 0.30585(13) 0 0.250 0.0050(2) 1.
#End of data_167270-ICSD

###############################################################################
# Hill, A.H.;Harrison, A.;Dickinson, C.;Zhou Wuzong;Kockelmann, W. (2010)
# Microporous and Mesoporous Materials 130, 280-286
# Crystallographic and magnetic studies of mesoporous eskolaite, Cr2 O3
# 
# CIF by ICSD-for-WWW,  Copyright 2003 FIZ-Karlsruhe & A.W.Hewat (hewat@ill.fr)
# NOT TO BE PUBLISHED IN ANY FORM. See http://icsd.ill.fr/icsd/conditions.html
###############################################################################

data_167269-ICSD
_database_code_ICSD                167269
_audit_creation_date               2010-08-01
_chemical_name_systematic
'Chromium oxide'
_chemical_formula_structural       
'Cr2 O3'
_chemical_formula_sum              
'Cr2 O3'
_publ_section_title                
'Cr2 O3'
loop_
_citation_id
_citation_journal_abbrev
_citation_year
_citation_journal_volume
_citation_page_first
_citation_page_last
_citation_journal_id_ASTM
primary 'Microporous and Mesoporous Materials' 2010 130 280 286 MIMMFJ
loop_
_publ_author_name
Hill, A.H.;Harrison, A.;Dickinson, C.;Zhou Wuzong;Kockelmann, W.
_cell_length_a                     4.95825(3)
_cell_length_b                     4.95825(3)
_cell_length_c                     13.59224(15)
_cell_angle_alpha                  90.
_cell_angle_beta                   90.
_cell_angle_gamma                  120.
_cell_volume                       289.381
_cell_formula_units_Z              6.000
_symmetry_space_group_name_H-M     'R -3 c'
_symmetry_Int_Tables_number        167
_refine_ls_R_factor_all            0.0505
loop_
_symmetry_equiv_pos_site_id
_symmetry_equiv_pos_as_xyz
   1   'x-y, -y, -z+1/2'
   2   '-x, -x+y, -z+1/2'
   3   'y, x, -z+1/2'
   4   'x-y, x, -z'
   5   'y, -x+y, -z'
   6   '-x, -y, -z'
   7   '-x+y, y, z+1/2'
   8   'x, x-y, z+1/2'
   9   '-y, -x, z+1/2'
  10   '-x+y, -x, z'
  11   '-y, x-y, z'
  12   'x, y, z'
  13   'x-y+2/3, -y+1/3, -z+5/6'
  14   '-x+2/3, -x+y+1/3, -z+5/6'
  15   'y+2/3, x+1/3, -z+5/6'
  16   'x-y+2/3, x+1/3, -z+1/3'
  17   'y+2/3, -x+y+1/3, -z+1/3'
  18   '-x+2/3, -y+1/3, -z+1/3'
  19   '-x+y+2/3, y+1/3, z+5/6'
  20   'x+2/3, x-y+1/3, z+5/6'
  21   '-y+2/3, -x+1/3, z+5/6'
  22   '-x+y+2/3, -x+1/3, z+1/3'
  23   '-y+2/3, x-y+1/3, z+1/3'
  24   'x+2/3, y+1/3, z+1/3'
  25   'x-y+1/3, -y+2/3, -z+1/6'
  26   '-x+1/3, -x+y+2/3, -z+1/6'
  27   'y+1/3, x+2/3, -z+1/6'
  28   'x-y+1/3, x+2/3, -z+2/3'
  29   'y+1/3, -x+y+2/3, -z+2/3'
  30   '-x+1/3, -y+2/3, -z+2/3'
  31   '-x+y+1/3, y+2/3, z+1/6'
  32   'x+1/3, x-y+2/3, z+1/6'
  33   '-y+1/3, -x+2/3, z+1/6'
  34   '-x+y+1/3, -x+2/3, z+2/3'
  35   '-y+1/3, x-y+2/3, z+2/3'
  36   'x+1/3, y+2/3, z+2/3'
loop_
_atom_type_symbol
_atom_type_oxidation_number
Cr3+     3.
O2-     -2.
loop_
_atom_site_label
_atom_site_type_symbol
_atom_site_symmetry_multiplicity
_atom_site_Wyckoff_symbol
_atom_site_fract_x
_atom_site_fract_y
_atom_site_fract_z
_atom_site_B_iso_or_equiv
_atom_site_occupancy
Cr1 Cr3+ 12 c 0 0 0.34824(9) 0.0051(3) 1.
O1 O2- 18 e 0.30565(13) 0 0.250 0.0046(2) 1.
#End of data_167269-ICSD

###############################################################################
# Hill, A.H.;Harrison, A.;Dickinson, C.;Zhou Wuzong;Kockelmann, W. (2010)
# Microporous and Mesoporous Materials 130, 280-286
# Crystallographic and magnetic studies of mesoporous eskolaite, Cr2 O3
# 
# CIF by ICSD-for-WWW,  Copyright 2003 FIZ-Karlsruhe & A.W.Hewat (hewat@ill.fr)
# NOT TO BE PUBLISHED IN ANY FORM. See http://icsd.ill.fr/icsd/conditions.html
###############################################################################

data_167268-ICSD
_database_code_ICSD                167268
_audit_creation_date               2010-08-01
_chemical_name_systematic
'Chromium oxide'
_chemical_formula_structural       
'Cr2 O3'
_chemical_formula_sum              
'Cr2 O3'
_publ_section_title                
'Cr2 O3'
loop_
_citation_id
_citation_journal_abbrev
_citation_year
_citation_journal_volume
_citation_page_first
_citation_page_last
_citation_journal_id_ASTM
primary 'Microporous and Mesoporous Materials' 2010 130 280 286 MIMMFJ
loop_
_publ_author_name
Hill, A.H.;Harrison, A.;Dickinson, C.;Zhou Wuzong;Kockelmann, W.
_cell_length_a                     4.95721(3)
_cell_length_b                     4.95721(3)
_cell_length_c                     13.59170(10)
_cell_angle_alpha                  90.
_cell_angle_beta                   90.
_cell_angle_gamma                  120.
_cell_volume                       289.2504
_cell_formula_units_Z              6.000
_symmetry_space_group_name_H-M     'R -3 c'
_symmetry_Int_Tables_number        167
_refine_ls_R_factor_all            0.0361
loop_
_symmetry_equiv_pos_site_id
_symmetry_equiv_pos_as_xyz
   1   'x-y, -y, -z+1/2'
   2   '-x, -x+y, -z+1/2'
   3   'y, x, -z+1/2'
   4   'x-y, x, -z'
   5   'y, -x+y, -z'
   6   '-x, -y, -z'
   7   '-x+y, y, z+1/2'
   8   'x, x-y, z+1/2'
   9   '-y, -x, z+1/2'
  10   '-x+y, -x, z'
  11   '-y, x-y, z'
  12   'x, y, z'
  13   'x-y+2/3, -y+1/3, -z+5/6'
  14   '-x+2/3, -x+y+1/3, -z+5/6'
  15   'y+2/3, x+1/3, -z+5/6'
  16   'x-y+2/3, x+1/3, -z+1/3'
  17   'y+2/3, -x+y+1/3, -z+1/3'
  18   '-x+2/3, -y+1/3, -z+1/3'
  19   '-x+y+2/3, y+1/3, z+5/6'
  20   'x+2/3, x-y+1/3, z+5/6'
  21   '-y+2/3, -x+1/3, z+5/6'
  22   '-x+y+2/3, -x+1/3, z+1/3'
  23   '-y+2/3, x-y+1/3, z+1/3'
  24   'x+2/3, y+1/3, z+1/3'
  25   'x-y+1/3, -y+2/3, -z+1/6'
  26   '-x+1/3, -x+y+2/3, -z+1/6'
  27   'y+1/3, x+2/3, -z+1/6'
  28   'x-y+1/3, x+2/3, -z+2/3'
  29   'y+1/3, -x+y+2/3, -z+2/3'
  30   '-x+1/3, -y+2/3, -z+2/3'
  31   '-x+y+1/3, y+2/3, z+1/6'
  32   'x+1/3, x-y+2/3, z+1/6'
  33   '-y+1/3, -x+2/3, z+1/6'
  34   '-x+y+1/3, -x+2/3, z+2/3'
  35   '-y+1/3, x-y+2/3, z+2/3'
  36   'x+1/3, y+2/3, z+2/3'
loop_
_atom_type_symbol
_atom_type_oxidation_number
Cr3+     3.
O2-     -2.
loop_
_atom_site_label
_atom_site_type_symbol
_atom_site_symmetry_multiplicity
_atom_site_Wyckoff_symbol
_atom_site_fract_x
_atom_site_fract_y
_atom_site_fract_z
_atom_site_B_iso_or_equiv
_atom_site_occupancy
Cr1 Cr3+ 12 c 0 0 0.34734(3) 0.00263(4) 1.
O1 O2- 18 e 0.30569(3) 0 0.250 0.00372(4) 1.
#End of data_167268-ICSD

###############################################################################
# Tirao, G.;Ceppi, S.;Cappelletti, A.L.;Pannunzio Miner, E.V. (2010)
# Journal of Physics and Chemistry of Solids 71, 199-205
# Oxidation state characterization in Cr oxides by means of Cr-Kbeta emission \
# spectroscopy
# 
# CIF by ICSD-for-WWW,  Copyright 2003 FIZ-Karlsruhe & A.W.Hewat (hewat@ill.fr)
# NOT TO BE PUBLISHED IN ANY FORM. See http://icsd.ill.fr/icsd/conditions.html
###############################################################################

data_167237-ICSD
_database_code_ICSD                167237
_audit_creation_date               2010-08-01
_chemical_name_systematic
'Chromium(IV) oxide'
_chemical_formula_structural       
'Cr O2'
_chemical_formula_sum              
'Cr1 O2'
_publ_section_title                
'Cr1 O2'
loop_
_citation_id
_citation_journal_abbrev
_citation_year
_citation_journal_volume
_citation_page_first
_citation_page_last
_citation_journal_id_ASTM
primary 'Journal of Physics and Chemistry of Soli' 2010 71 199 205 JPCSAW
loop_
_publ_author_name
Tirao, G.;Ceppi, S.;Cappelletti, A.L.;Pannunzio Miner, E.V.
_cell_length_a                     4.4185(3)
_cell_length_b                     4.4185(3)
_cell_length_c                     2.9149(2)
_cell_angle_alpha                  90.
_cell_angle_beta                   90.
_cell_angle_gamma                  90.
_cell_volume                       56.9109
_cell_formula_units_Z              2.000
_symmetry_space_group_name_H-M     'P 42/m n m'
_symmetry_Int_Tables_number        136
_refine_ls_R_factor_all            0.0442
loop_
_symmetry_equiv_pos_site_id
_symmetry_equiv_pos_as_xyz
   1   '-y+1/2, x+1/2, -z+1/2'
   2   'y+1/2, -x+1/2, -z+1/2'
   3   'y, x, -z'
   4   '-y, -x, -z'
   5   'y+1/2, -x+1/2, z+1/2'
   6   '-y+1/2, x+1/2, z+1/2'
   7   '-y, -x, z'
   8   'y, x, z'
   9   'x+1/2, -y+1/2, -z+1/2'
  10   '-x+1/2, y+1/2, -z+1/2'
  11   'x, y, -z'
  12   '-x, -y, -z'
  13   '-x+1/2, y+1/2, z+1/2'
  14   'x+1/2, -y+1/2, z+1/2'
  15   '-x, -y, z'
  16   'x, y, z'
loop_
_atom_type_symbol
_atom_type_oxidation_number
Cr4+     4.
O2-     -2.
loop_
_atom_site_label
_atom_site_type_symbol
_atom_site_symmetry_multiplicity
_atom_site_Wyckoff_symbol
_atom_site_fract_x
_atom_site_fract_y
_atom_site_fract_z
_atom_site_B_iso_or_equiv
_atom_site_occupancy
Cr1 Cr4+ 2 a 0 0 0 0.341(7) 1.
O1 O2- 4 f 0.3007 0.3007 0 2.61(3) 1.
#End of data_167237-ICSD

###############################################################################
# Dho Joonghoe;Ki Sanghoon;Gubkin, A.F.;Park, J.M.S.;Sherstobitova, E.A. (2010)
# Solid State Communications 150, 86-90
# A neutron diffraction study of half-metallic ferromagnet Cr O2 nanorods
# 
# CIF by ICSD-for-WWW,  Copyright 2003 FIZ-Karlsruhe & A.W.Hewat (hewat@ill.fr)
# NOT TO BE PUBLISHED IN ANY FORM. See http://icsd.ill.fr/icsd/conditions.html
###############################################################################

data_166028-ICSD
_database_code_ICSD                166028
_audit_creation_date               2010-08-01
_chemical_name_systematic
'Chromium(IV) oxide - nanorods'
_chemical_formula_structural       
'Cr O2'
_chemical_formula_sum              
'Cr1 O2'
_publ_section_title                
'Cr1 O2'
loop_
_citation_id
_citation_journal_abbrev
_citation_year
_citation_journal_volume
_citation_page_first
_citation_page_last
_citation_journal_id_ASTM
primary 'Solid State Communications' 2010 150 86 90 SSCOA4
loop_
_publ_author_name
Dho Joonghoe;Ki Sanghoon;Gubkin, A.F.;Park, J.M.S.;Sherstobitova, E.A.
_cell_length_a                     4.4264(3)
_cell_length_b                     4.4264(3)
_cell_length_c                     2.9145(3)
_cell_angle_alpha                  90.
_cell_angle_beta                   90.
_cell_angle_gamma                  90.
_cell_volume                       57.1007
_cell_formula_units_Z              2.000
_symmetry_space_group_name_H-M     'P 42/m n m'
_symmetry_Int_Tables_number        136
_refine_ls_R_factor_all            0.0352
loop_
_symmetry_equiv_pos_site_id
_symmetry_equiv_pos_as_xyz
   1   '-y+1/2, x+1/2, -z+1/2'
   2   'y+1/2, -x+1/2, -z+1/2'
   3   'y, x, -z'
   4   '-y, -x, -z'
   5   'y+1/2, -x+1/2, z+1/2'
   6   '-y+1/2, x+1/2, z+1/2'
   7   '-y, -x, z'
   8   'y, x, z'
   9   'x+1/2, -y+1/2, -z+1/2'
  10   '-x+1/2, y+1/2, -z+1/2'
  11   'x, y, -z'
  12   '-x, -y, -z'
  13   '-x+1/2, y+1/2, z+1/2'
  14   'x+1/2, -y+1/2, z+1/2'
  15   '-x, -y, z'
  16   'x, y, z'
loop_
_atom_type_symbol
_atom_type_oxidation_number
Cr4+     4.
O2-     -2.
loop_
_atom_site_label
_atom_site_type_symbol
_atom_site_symmetry_multiplicity
_atom_site_Wyckoff_symbol
_atom_site_fract_x
_atom_site_fract_y
_atom_site_fract_z
_atom_site_B_iso_or_equiv
_atom_site_occupancy
Cr1 Cr4+ 2 a 0 0 0 0. 1.
O1 O2- 4 f 0.3027(2) 0.3027(2) 0 0. 1.
#End of data_166028-ICSD

###############################################################################
# Dho Joonghoe;Ki Sanghoon;Gubkin, A.F.;Park, J.M.S.;Sherstobitova, E.A. (2010)
# Solid State Communications 150, 86-90
# A neutron diffraction study of half-metallic ferromagnet Cr O2 nanorods
# 
# CIF by ICSD-for-WWW,  Copyright 2003 FIZ-Karlsruhe & A.W.Hewat (hewat@ill.fr)
# NOT TO BE PUBLISHED IN ANY FORM. See http://icsd.ill.fr/icsd/conditions.html
###############################################################################

data_166027-ICSD
_database_code_ICSD                166027
_audit_creation_date               2010-08-01
_chemical_name_systematic
'Chromium(IV) oxide - nanorods'
_chemical_formula_structural       
'Cr O2'
_chemical_formula_sum              
'Cr1 O2'
_publ_section_title                
'Cr1 O2'
loop_
_citation_id
_citation_journal_abbrev
_citation_year
_citation_journal_volume
_citation_page_first
_citation_page_last
_citation_journal_id_ASTM
primary 'Solid State Communications' 2010 150 86 90 SSCOA4
loop_
_publ_author_name
Dho Joonghoe;Ki Sanghoon;Gubkin, A.F.;Park, J.M.S.;Sherstobitova, E.A.
_cell_length_a                     4.4216(3)
_cell_length_b                     4.4216(3)
_cell_length_c                     2.9148(3)
_cell_angle_alpha                  90.
_cell_angle_beta                   90.
_cell_angle_gamma                  90.
_cell_volume                       56.9901
_cell_formula_units_Z              2.000
_symmetry_space_group_name_H-M     'P 42/m n m'
_symmetry_Int_Tables_number        136
_refine_ls_R_factor_all            0.0352
loop_
_symmetry_equiv_pos_site_id
_symmetry_equiv_pos_as_xyz
   1   '-y+1/2, x+1/2, -z+1/2'
   2   'y+1/2, -x+1/2, -z+1/2'
   3   'y, x, -z'
   4   '-y, -x, -z'
   5   'y+1/2, -x+1/2, z+1/2'
   6   '-y+1/2, x+1/2, z+1/2'
   7   '-y, -x, z'
   8   'y, x, z'
   9   'x+1/2, -y+1/2, -z+1/2'
  10   '-x+1/2, y+1/2, -z+1/2'
  11   'x, y, -z'
  12   '-x, -y, -z'
  13   '-x+1/2, y+1/2, z+1/2'
  14   'x+1/2, -y+1/2, z+1/2'
  15   '-x, -y, z'
  16   'x, y, z'
loop_
_atom_type_symbol
_atom_type_oxidation_number
Cr4+     4.
O2-     -2.
loop_
_atom_site_label
_atom_site_type_symbol
_atom_site_symmetry_multiplicity
_atom_site_Wyckoff_symbol
_atom_site_fract_x
_atom_site_fract_y
_atom_site_fract_z
_atom_site_B_iso_or_equiv
_atom_site_occupancy
Cr1 Cr4+ 2 a 0 0 0 0. 1.
O1 O2- 4 f 0.3021(2) 0.3021(2) 0 0. 1.
#End of data_166027-ICSD

###############################################################################
# Dho Joonghoe;Ki Sanghoon;Gubkin, A.F.;Park, J.M.S.;Sherstobitova, E.A. (2010)
# Solid State Communications 150, 86-90
# A neutron diffraction study of half-metallic ferromagnet Cr O2 nanorods
# 
# CIF by ICSD-for-WWW,  Copyright 2003 FIZ-Karlsruhe & A.W.Hewat (hewat@ill.fr)
# NOT TO BE PUBLISHED IN ANY FORM. See http://icsd.ill.fr/icsd/conditions.html
###############################################################################

data_166026-ICSD
_database_code_ICSD                166026
_audit_creation_date               2010-08-01
_chemical_name_systematic
'Chromium(IV) oxide - nanorods'
_chemical_formula_structural       
'Cr O2'
_chemical_formula_sum              
'Cr1 O2'
_publ_section_title                
'Cr1 O2'
loop_
_citation_id
_citation_journal_abbrev
_citation_year
_citation_journal_volume
_citation_page_first
_citation_page_last
_citation_journal_id_ASTM
primary 'Solid State Communications' 2010 150 86 90 SSCOA4
loop_
_publ_author_name
Dho Joonghoe;Ki Sanghoon;Gubkin, A.F.;Park, J.M.S.;Sherstobitova, E.A.
_cell_length_a                     4.4193(3)
_cell_length_b                     4.4193(3)
_cell_length_c                     2.9150(3)
_cell_angle_alpha                  90.
_cell_angle_beta                   90.
_cell_angle_gamma                  90.
_cell_volume                       56.9307
_cell_formula_units_Z              2.000
_symmetry_space_group_name_H-M     'P 42/m n m'
_symmetry_Int_Tables_number        136
_refine_ls_R_factor_all            0.0352
loop_
_symmetry_equiv_pos_site_id
_symmetry_equiv_pos_as_xyz
   1   '-y+1/2, x+1/2, -z+1/2'
   2   'y+1/2, -x+1/2, -z+1/2'
   3   'y, x, -z'
   4   '-y, -x, -z'
   5   'y+1/2, -x+1/2, z+1/2'
   6   '-y+1/2, x+1/2, z+1/2'
   7   '-y, -x, z'
   8   'y, x, z'
   9   'x+1/2, -y+1/2, -z+1/2'
  10   '-x+1/2, y+1/2, -z+1/2'
  11   'x, y, -z'
  12   '-x, -y, -z'
  13   '-x+1/2, y+1/2, z+1/2'
  14   'x+1/2, -y+1/2, z+1/2'
  15   '-x, -y, z'
  16   'x, y, z'
loop_
_atom_type_symbol
_atom_type_oxidation_number
Cr4+     4.
O2-     -2.
loop_
_atom_site_label
_atom_site_type_symbol
_atom_site_symmetry_multiplicity
_atom_site_Wyckoff_symbol
_atom_site_fract_x
_atom_site_fract_y
_atom_site_fract_z
_atom_site_B_iso_or_equiv
_atom_site_occupancy
Cr1 Cr4+ 2 a 0 0 0 0. 1.
O1 O2- 4 f 0.3022(2) 0.3022(2) 0 0. 1.
#End of data_166026-ICSD

###############################################################################
# Dho Joonghoe;Ki Sanghoon;Gubkin, A.F.;Park, J.M.S.;Sherstobitova, E.A. (2010)
# Solid State Communications 150, 86-90
# A neutron diffraction study of half-metallic ferromagnet Cr O2 nanorods
# 
# CIF by ICSD-for-WWW,  Copyright 2003 FIZ-Karlsruhe & A.W.Hewat (hewat@ill.fr)
# NOT TO BE PUBLISHED IN ANY FORM. See http://icsd.ill.fr/icsd/conditions.html
###############################################################################

data_166025-ICSD
_database_code_ICSD                166025
_audit_creation_date               2010-08-01
_chemical_name_systematic
'Chromium(IV) oxide - nanorods'
_chemical_formula_structural       
'Cr O2'
_chemical_formula_sum              
'Cr1 O2'
_publ_section_title                
'Cr1 O2'
loop_
_citation_id
_citation_journal_abbrev
_citation_year
_citation_journal_volume
_citation_page_first
_citation_page_last
_citation_journal_id_ASTM
primary 'Solid State Communications' 2010 150 86 90 SSCOA4
loop_
_publ_author_name
Dho Joonghoe;Ki Sanghoon;Gubkin, A.F.;Park, J.M.S.;Sherstobitova, E.A.
_cell_length_a                     4.4173(3)
_cell_length_b                     4.4173(3)
_cell_length_c                     2.9150(3)
_cell_angle_alpha                  90.
_cell_angle_beta                   90.
_cell_angle_gamma                  90.
_cell_volume                       56.8803
_cell_formula_units_Z              2.000
_symmetry_space_group_name_H-M     'P 42/m n m'
_symmetry_Int_Tables_number        136
_refine_ls_R_factor_all            0.0352
loop_
_symmetry_equiv_pos_site_id
_symmetry_equiv_pos_as_xyz
   1   '-y+1/2, x+1/2, -z+1/2'
   2   'y+1/2, -x+1/2, -z+1/2'
   3   'y, x, -z'
   4   '-y, -x, -z'
   5   'y+1/2, -x+1/2, z+1/2'
   6   '-y+1/2, x+1/2, z+1/2'
   7   '-y, -x, z'
   8   'y, x, z'
   9   'x+1/2, -y+1/2, -z+1/2'
  10   '-x+1/2, y+1/2, -z+1/2'
  11   'x, y, -z'
  12   '-x, -y, -z'
  13   '-x+1/2, y+1/2, z+1/2'
  14   'x+1/2, -y+1/2, z+1/2'
  15   '-x, -y, z'
  16   'x, y, z'
loop_
_atom_type_symbol
_atom_type_oxidation_number
Cr4+     4.
O2-     -2.
loop_
_atom_site_label
_atom_site_type_symbol
_atom_site_symmetry_multiplicity
_atom_site_Wyckoff_symbol
_atom_site_fract_x
_atom_site_fract_y
_atom_site_fract_z
_atom_site_B_iso_or_equiv
_atom_site_occupancy
Cr1 Cr4+ 2 a 0 0 0 0. 1.
O1 O2- 4 f 0.3021(2) 0.3021(2) 0 0. 1.
#End of data_166025-ICSD

###############################################################################
# Dho Joonghoe;Ki Sanghoon;Gubkin, A.F.;Park, J.M.S.;Sherstobitova, E.A. (2010)
# Solid State Communications 150, 86-90
# A neutron diffraction study of half-metallic ferromagnet Cr O2 nanorods
# 
# CIF by ICSD-for-WWW,  Copyright 2003 FIZ-Karlsruhe & A.W.Hewat (hewat@ill.fr)
# NOT TO BE PUBLISHED IN ANY FORM. See http://icsd.ill.fr/icsd/conditions.html
###############################################################################

data_166024-ICSD
_database_code_ICSD                166024
_audit_creation_date               2010-08-01
_chemical_name_systematic
'Chromium(IV) oxide - nanorods'
_chemical_formula_structural       
'Cr O2'
_chemical_formula_sum              
'Cr1 O2'
_publ_section_title                
'Cr1 O2'
loop_
_citation_id
_citation_journal_abbrev
_citation_year
_citation_journal_volume
_citation_page_first
_citation_page_last
_citation_journal_id_ASTM
primary 'Solid State Communications' 2010 150 86 90 SSCOA4
loop_
_publ_author_name
Dho Joonghoe;Ki Sanghoon;Gubkin, A.F.;Park, J.M.S.;Sherstobitova, E.A.
_cell_length_a                     4.4159(3)
_cell_length_b                     4.4159(3)
_cell_length_c                     2.9156(3)
_cell_angle_alpha                  90.
_cell_angle_beta                   90.
_cell_angle_gamma                  90.
_cell_volume                       56.8506
_cell_formula_units_Z              2.000
_symmetry_space_group_name_H-M     'P 42/m n m'
_symmetry_Int_Tables_number        136
_refine_ls_R_factor_all            0.0352
loop_
_symmetry_equiv_pos_site_id
_symmetry_equiv_pos_as_xyz
   1   '-y+1/2, x+1/2, -z+1/2'
   2   'y+1/2, -x+1/2, -z+1/2'
   3   'y, x, -z'
   4   '-y, -x, -z'
   5   'y+1/2, -x+1/2, z+1/2'
   6   '-y+1/2, x+1/2, z+1/2'
   7   '-y, -x, z'
   8   'y, x, z'
   9   'x+1/2, -y+1/2, -z+1/2'
  10   '-x+1/2, y+1/2, -z+1/2'
  11   'x, y, -z'
  12   '-x, -y, -z'
  13   '-x+1/2, y+1/2, z+1/2'
  14   'x+1/2, -y+1/2, z+1/2'
  15   '-x, -y, z'
  16   'x, y, z'
loop_
_atom_type_symbol
_atom_type_oxidation_number
Cr4+     4.
O2-     -2.
loop_
_atom_site_label
_atom_site_type_symbol
_atom_site_symmetry_multiplicity
_atom_site_Wyckoff_symbol
_atom_site_fract_x
_atom_site_fract_y
_atom_site_fract_z
_atom_site_B_iso_or_equiv
_atom_site_occupancy
Cr1 Cr4+ 2 a 0 0 0 0. 1.
O1 O2- 4 f 0.3021(2) 0.3021(2) 0 0. 1.
#End of data_166024-ICSD

###############################################################################
# Dho Joonghoe;Ki Sanghoon;Gubkin, A.F.;Park, J.M.S.;Sherstobitova, E.A. (2010)
# Solid State Communications 150, 86-90
# A neutron diffraction study of half-metallic ferromagnet Cr O2 nanorods
# 
# CIF by ICSD-for-WWW,  Copyright 2003 FIZ-Karlsruhe & A.W.Hewat (hewat@ill.fr)
# NOT TO BE PUBLISHED IN ANY FORM. See http://icsd.ill.fr/icsd/conditions.html
###############################################################################

data_166023-ICSD
_database_code_ICSD                166023
_audit_creation_date               2010-08-01
_chemical_name_systematic
'Chromium(IV) oxide - nanorods'
_chemical_formula_structural       
'Cr O2'
_chemical_formula_sum              
'Cr1 O2'
_publ_section_title                
'Cr1 O2'
loop_
_citation_id
_citation_journal_abbrev
_citation_year
_citation_journal_volume
_citation_page_first
_citation_page_last
_citation_journal_id_ASTM
primary 'Solid State Communications' 2010 150 86 90 SSCOA4
loop_
_publ_author_name
Dho Joonghoe;Ki Sanghoon;Gubkin, A.F.;Park, J.M.S.;Sherstobitova, E.A.
_cell_length_a                     4.4159(3)
_cell_length_b                     4.4159(3)
_cell_length_c                     2.9156(3)
_cell_angle_alpha                  90.
_cell_angle_beta                   90.
_cell_angle_gamma                  90.
_cell_volume                       56.8506
_cell_formula_units_Z              2.000
_symmetry_space_group_name_H-M     'P 42/m n m'
_symmetry_Int_Tables_number        136
_refine_ls_R_factor_all            0.0352
loop_
_symmetry_equiv_pos_site_id
_symmetry_equiv_pos_as_xyz
   1   '-y+1/2, x+1/2, -z+1/2'
   2   'y+1/2, -x+1/2, -z+1/2'
   3   'y, x, -z'
   4   '-y, -x, -z'
   5   'y+1/2, -x+1/2, z+1/2'
   6   '-y+1/2, x+1/2, z+1/2'
   7   '-y, -x, z'
   8   'y, x, z'
   9   'x+1/2, -y+1/2, -z+1/2'
  10   '-x+1/2, y+1/2, -z+1/2'
  11   'x, y, -z'
  12   '-x, -y, -z'
  13   '-x+1/2, y+1/2, z+1/2'
  14   'x+1/2, -y+1/2, z+1/2'
  15   '-x, -y, z'
  16   'x, y, z'
loop_
_atom_type_symbol
_atom_type_oxidation_number
Cr4+     4.
O2-     -2.
loop_
_atom_site_label
_atom_site_type_symbol
_atom_site_symmetry_multiplicity
_atom_site_Wyckoff_symbol
_atom_site_fract_x
_atom_site_fract_y
_atom_site_fract_z
_atom_site_B_iso_or_equiv
_atom_site_occupancy
Cr1 Cr4+ 2 a 0 0 0 0. 1.
O1 O2- 4 f 0.3020(2) 0.3020(2) 0 0. 1.
#End of data_166023-ICSD

###############################################################################
# Dho Joonghoe;Ki Sanghoon;Gubkin, A.F.;Park, J.M.S.;Sherstobitova, E.A. (2010)
# Solid State Communications 150, 86-90
# A neutron diffraction study of half-metallic ferromagnet Cr O2 nanorods
# 
# CIF by ICSD-for-WWW,  Copyright 2003 FIZ-Karlsruhe & A.W.Hewat (hewat@ill.fr)
# NOT TO BE PUBLISHED IN ANY FORM. See http://icsd.ill.fr/icsd/conditions.html
###############################################################################

data_166022-ICSD
_database_code_ICSD                166022
_audit_creation_date               2010-08-01
_chemical_name_systematic
'Chromium(IV) oxide - nanorods'
_chemical_formula_structural       
'Cr O2'
_chemical_formula_sum              
'Cr1 O2'
_publ_section_title                
'Cr1 O2'
loop_
_citation_id
_citation_journal_abbrev
_citation_year
_citation_journal_volume
_citation_page_first
_citation_page_last
_citation_journal_id_ASTM
primary 'Solid State Communications' 2010 150 86 90 SSCOA4
loop_
_publ_author_name
Dho Joonghoe;Ki Sanghoon;Gubkin, A.F.;Park, J.M.S.;Sherstobitova, E.A.
_cell_length_a                     4.41593(7)
_cell_length_b                     4.41593(7)
_cell_length_c                     2.91572(5)
_cell_angle_alpha                  90.
_cell_angle_beta                   90.
_cell_angle_gamma                  90.
_cell_volume                       56.8605
_cell_formula_units_Z              2.000
_symmetry_space_group_name_H-M     'P 42/m n m'
_symmetry_Int_Tables_number        136
_refine_ls_R_factor_all            0.0352
loop_
_symmetry_equiv_pos_site_id
_symmetry_equiv_pos_as_xyz
   1   '-y+1/2, x+1/2, -z+1/2'
   2   'y+1/2, -x+1/2, -z+1/2'
   3   'y, x, -z'
   4   '-y, -x, -z'
   5   'y+1/2, -x+1/2, z+1/2'
   6   '-y+1/2, x+1/2, z+1/2'
   7   '-y, -x, z'
   8   'y, x, z'
   9   'x+1/2, -y+1/2, -z+1/2'
  10   '-x+1/2, y+1/2, -z+1/2'
  11   'x, y, -z'
  12   '-x, -y, -z'
  13   '-x+1/2, y+1/2, z+1/2'
  14   'x+1/2, -y+1/2, z+1/2'
  15   '-x, -y, z'
  16   'x, y, z'
loop_
_atom_type_symbol
_atom_type_oxidation_number
Cr4+     4.
O2-     -2.
loop_
_atom_site_label
_atom_site_type_symbol
_atom_site_symmetry_multiplicity
_atom_site_Wyckoff_symbol
_atom_site_fract_x
_atom_site_fract_y
_atom_site_fract_z
_atom_site_B_iso_or_equiv
_atom_site_occupancy
Cr1 Cr4+ 2 a 0 0 0 0. 1.
O1 O2- 4 f 0.3021(1) 0.3021(1) 0 0. 1.
#End of data_166022-ICSD

###############################################################################
# Dho Joonghoe;Ki Sanghoon;Gubkin, A.F.;Park, J.M.S.;Sherstobitova, E.A. (2010)
# Solid State Communications 150, 86-90
# A neutron diffraction study of half-metallic ferromagnet Cr O2 nanorods
# 
# CIF by ICSD-for-WWW,  Copyright 2003 FIZ-Karlsruhe & A.W.Hewat (hewat@ill.fr)
# NOT TO BE PUBLISHED IN ANY FORM. See http://icsd.ill.fr/icsd/conditions.html
###############################################################################

data_166021-ICSD
_database_code_ICSD                166021
_audit_creation_date               2010-08-01
_chemical_name_systematic
'Chromium(IV) oxide - nanorods'
_chemical_formula_structural       
'Cr O2'
_chemical_formula_sum              
'Cr1 O2'
_publ_section_title                
'Cr1 O2'
loop_
_citation_id
_citation_journal_abbrev
_citation_year
_citation_journal_volume
_citation_page_first
_citation_page_last
_citation_journal_id_ASTM
primary 'Solid State Communications' 2010 150 86 90 SSCOA4
loop_
_publ_author_name
Dho Joonghoe;Ki Sanghoon;Gubkin, A.F.;Park, J.M.S.;Sherstobitova, E.A.
_cell_length_a                     4.43106(6)
_cell_length_b                     4.43106(6)
_cell_length_c                     2.91220(5)
_cell_angle_alpha                  90.
_cell_angle_beta                   90.
_cell_angle_gamma                  90.
_cell_volume                       57.1809
_cell_formula_units_Z              2.000
_symmetry_space_group_name_H-M     'P 42/m n m'
_symmetry_Int_Tables_number        136
_refine_ls_R_factor_all            0.0325
loop_
_symmetry_equiv_pos_site_id
_symmetry_equiv_pos_as_xyz
   1   '-y+1/2, x+1/2, -z+1/2'
   2   'y+1/2, -x+1/2, -z+1/2'
   3   'y, x, -z'
   4   '-y, -x, -z'
   5   'y+1/2, -x+1/2, z+1/2'
   6   '-y+1/2, x+1/2, z+1/2'
   7   '-y, -x, z'
   8   'y, x, z'
   9   'x+1/2, -y+1/2, -z+1/2'
  10   '-x+1/2, y+1/2, -z+1/2'
  11   'x, y, -z'
  12   '-x, -y, -z'
  13   '-x+1/2, y+1/2, z+1/2'
  14   'x+1/2, -y+1/2, z+1/2'
  15   '-x, -y, z'
  16   'x, y, z'
loop_
_atom_type_symbol
_atom_type_oxidation_number
Cr4+     4.
O2-     -2.
loop_
_atom_site_label
_atom_site_type_symbol
_atom_site_symmetry_multiplicity
_atom_site_Wyckoff_symbol
_atom_site_fract_x
_atom_site_fract_y
_atom_site_fract_z
_atom_site_B_iso_or_equiv
_atom_site_occupancy
Cr1 Cr4+ 2 a 0 0 0 0. 1.
O1 O2- 4 f 0.3025(1) 0.3025(1) 0 0. 1.
#End of data_166021-ICSD

###############################################################################
# Vidya, R.;Ravindran, P.;Kjekshus, A.;Fjellvag, H. (2006)
# Physical Review, Serie 3. B - Condensed Matter (18,1978-) 73, \
# 235113-1-235113-13
# Crystal and electronic structures of Cr3 O8 and Li Cr3 O8: probable cathode \
# materials in Li batteries
# 
# CIF by ICSD-for-WWW,  Copyright 2003 FIZ-Karlsruhe & A.W.Hewat (hewat@ill.fr)
# NOT TO BE PUBLISHED IN ANY FORM. See http://icsd.ill.fr/icsd/conditions.html
###############################################################################

data_155849-ICSD
_database_code_ICSD                155849
_audit_creation_date               2007-08-01
_chemical_name_systematic
'Chromium oxide (8/21)'
_chemical_formula_structural       
'Cr8 O21'
_chemical_formula_sum              
'Cr8 O21'
_publ_section_title                
'Cr8 O21'
loop_
_citation_id
_citation_journal_abbrev
_citation_year
_citation_journal_volume
_citation_page_first
_citation_page_last
_citation_journal_id_ASTM
primary 'Physical Review, Serie 3. B - Condensed ' 2006 73 235113-1 235113-13 PRBMDO
loop_
_publ_author_name
Vidya, R.;Ravindran, P.;Kjekshus, A.;Fjellvag, H.
_cell_length_a                     5.434
_cell_length_b                     6.637
_cell_length_c                     12.546
_cell_angle_alpha                  105.86
_cell_angle_beta                   95.36
_cell_angle_gamma                  77.70
_cell_volume                       424.9605
_cell_formula_units_Z              1.000
_symmetry_space_group_name_H-M     'P -1'
_symmetry_Int_Tables_number        2
loop_
_symmetry_equiv_pos_site_id
_symmetry_equiv_pos_as_xyz
   1   '-x, -y, -z'
   2   'x, y, z'
loop_
_atom_type_symbol
_atom_type_oxidation_number
Cr5+5     5.25
O2-     -2.
loop_
_atom_site_label
_atom_site_type_symbol
_atom_site_symmetry_multiplicity
_atom_site_Wyckoff_symbol
_atom_site_fract_x
_atom_site_fract_y
_atom_site_fract_z
_atom_site_B_iso_or_equiv
_atom_site_occupancy
Cr1 Cr5+5 2 i 0.852 0.211 0.069 0. 1.
Cr2 Cr5+5 2 i 0.296 0.235 0.899 0. 1.
Cr3 Cr5+5 2 i 0.347 0.368 0.248 0. 1.
Cr4 Cr5+5 2 i 0.731 0.793 0.529 0. 1.
O1 O2- 2 i 0.813 0.500 0.066 0. 1.
O2 O2- 2 i 0.423 0.817 0.036 0. 1.
O3 O2- 1 f 0.5 0 0.5 0. 1.
O4 O2- 2 i 0.132 0.238 0.173 0. 1.
O5 O2- 2 i 0.374 0.725 0.814 0. 1.
O6 O2- 2 i 0.329 0.855 0.231 0. 1.
O7 O2- 2 i 0.910 0.897 0.055 0. 1.
O8 O2- 2 i 0.385 0.328 0.382 0. 1.
O9 O2- 2 i 0.026 0.116 0.412 0. 1.
O10 O2- 2 i 0.189 0.385 0.583 0. 1.
O11 O2- 2 i 0.262 0.617 0.255 0. 1.
#End of data_155849-ICSD

###############################################################################
# Vidya, R.;Ravindran, P.;Kjekshus, A.;Fjellvag, H. (2006)
# Physical Review, Serie 3. B - Condensed Matter (18,1978-) 73, \
# 235113-1-235113-13
# Crystal and electronic structures of Cr3 O8 and Li Cr3 O8: probable cathode \
# materials in Li batteries
# 
# CIF by ICSD-for-WWW,  Copyright 2003 FIZ-Karlsruhe & A.W.Hewat (hewat@ill.fr)
# NOT TO BE PUBLISHED IN ANY FORM. See http://icsd.ill.fr/icsd/conditions.html
###############################################################################

data_155848-ICSD
_database_code_ICSD                155848
_audit_creation_date               2007-08-01
_chemical_name_systematic
'Chromium oxide (3/8) - II'
_chemical_formula_structural       
'Cr3 O8'
_chemical_formula_sum              
'Cr3 O8'
_publ_section_title                
'Cr3 O8'
loop_
_citation_id
_citation_journal_abbrev
_citation_year
_citation_journal_volume
_citation_page_first
_citation_page_last
_citation_journal_id_ASTM
primary 'Physical Review, Serie 3. B - Condensed ' 2006 73 235113-1 235113-13 PRBMDO
loop_
_publ_author_name
Vidya, R.;Ravindran, P.;Kjekshus, A.;Fjellvag, H.
_cell_length_a                     6.7524
_cell_length_b                     5.6422
_cell_length_c                     7.7150
_cell_angle_alpha                  90.
_cell_angle_beta                   117.85
_cell_angle_gamma                  90.
_cell_volume                       259.8808
_cell_formula_units_Z              2.000
_symmetry_space_group_name_H-M     'C 1 2/m 1'
_symmetry_Int_Tables_number        12
loop_
_symmetry_equiv_pos_site_id
_symmetry_equiv_pos_as_xyz
   1   '-x, y, -z'
   2   '-x, -y, -z'
   3   'x, -y, z'
   4   'x, y, z'
   5   '-x+1/2, y+1/2, -z'
   6   '-x+1/2, -y+1/2, -z'
   7   'x+1/2, -y+1/2, z'
   8   'x+1/2, y+1/2, z'
loop_
_atom_type_symbol
_atom_type_oxidation_number
Cr5+33     5.333
O2-     -2.
loop_
_atom_site_label
_atom_site_type_symbol
_atom_site_symmetry_multiplicity
_atom_site_Wyckoff_symbol
_atom_site_fract_x
_atom_site_fract_y
_atom_site_fract_z
_atom_site_B_iso_or_equiv
_atom_site_occupancy
Cr1 Cr5+33 2 c 0 0 0.5 0. 1.
Cr2 Cr5+33 4 i 0.3675 0 0.5930 0. 1.
O1 O2- 4 i 0.2205 0 0.6579 0. 1.
O2 O2- 4 i 0.7184 0 0.6399 0. 1.
O3 O2- 8 j 0.9769 0.2460 0.6595 0. 1.
#End of data_155848-ICSD

###############################################################################
# Vidya, R.;Ravindran, P.;Kjekshus, A.;Fjellvag, H. (2006)
# Physical Review, Serie 3. B - Condensed Matter (18,1978-) 73, \
# 235113-1-235113-13
# Crystal and electronic structures of Cr3 O8 and Li Cr3 O8: probable cathode \
# materials in Li batteries
# 
# CIF by ICSD-for-WWW,  Copyright 2003 FIZ-Karlsruhe & A.W.Hewat (hewat@ill.fr)
# NOT TO BE PUBLISHED IN ANY FORM. See http://icsd.ill.fr/icsd/conditions.html
###############################################################################

data_155847-ICSD
_database_code_ICSD                155847
_audit_creation_date               2007-08-01
_chemical_name_systematic
'Chromium oxide (3/8) - I'
_chemical_formula_structural       
'Cr3 O8'
_chemical_formula_sum              
'Cr3 O8'
_publ_section_title                
'Cr3 O8'
loop_
_citation_id
_citation_journal_abbrev
_citation_year
_citation_journal_volume
_citation_page_first
_citation_page_last
_citation_journal_id_ASTM
primary 'Physical Review, Serie 3. B - Condensed ' 2006 73 235113-1 235113-13 PRBMDO
loop_
_publ_author_name
Vidya, R.;Ravindran, P.;Kjekshus, A.;Fjellvag, H.
_cell_length_a                     8.4067
_cell_length_b                     5.2656
_cell_length_c                     6.0462
_cell_angle_alpha                  90.
_cell_angle_beta                   91.03
_cell_angle_gamma                  90.
_cell_volume                       267.6009
_cell_formula_units_Z              2.000
_symmetry_space_group_name_H-M     'C 1 2/m 1'
_symmetry_Int_Tables_number        12
loop_
_symmetry_equiv_pos_site_id
_symmetry_equiv_pos_as_xyz
   1   '-x, y, -z'
   2   '-x, -y, -z'
   3   'x, -y, z'
   4   'x, y, z'
   5   '-x+1/2, y+1/2, -z'
   6   '-x+1/2, -y+1/2, -z'
   7   'x+1/2, -y+1/2, z'
   8   'x+1/2, y+1/2, z'
loop_
_atom_type_symbol
_atom_type_oxidation_number
Cr5+33     5.333
O2-     -2.
loop_
_atom_site_label
_atom_site_type_symbol
_atom_site_symmetry_multiplicity
_atom_site_Wyckoff_symbol
_atom_site_fract_x
_atom_site_fract_y
_atom_site_fract_z
_atom_site_B_iso_or_equiv
_atom_site_occupancy
Cr1 Cr5+33 2 c 0 0 0.5 0. 1.
Cr2 Cr5+33 4 i 0.5528 0 0.2598 0. 1.
O1 O2- 4 i 0.2007 0 0.5884 0. 1.
O2 O2- 4 i 0.2971 0 0.9770 0. 1.
O3 O2- 8 j 0.0495 0.2433 0.3083 0. 1.
#End of data_155847-ICSD

###############################################################################
# Maddox, B.R.;Yoo, C.S.;Kasinathan, D.;Pickett, W.E.;Scalettar, R.T. (2006)
# Physical Review, Serie 3. B - Condensed Matter (18,1978-) 73, \
# 144111-1-144111-9
# High-pressure structure of half-metallic Cr O2
# 
# CIF by ICSD-for-WWW,  Copyright 2003 FIZ-Karlsruhe & A.W.Hewat (hewat@ill.fr)
# NOT TO BE PUBLISHED IN ANY FORM. See http://icsd.ill.fr/icsd/conditions.html
###############################################################################

data_155832-ICSD
_database_code_ICSD                155832
_audit_creation_date               2007-08-01
_chemical_name_systematic
'Chromium(IV) oxide - beta'
_chemical_formula_structural       
'Cr O2'
_chemical_formula_sum              
'Cr1 O2'
_publ_section_title                
'Cr1 O2'
loop_
_citation_id
_citation_journal_abbrev
_citation_year
_citation_journal_volume
_citation_page_first
_citation_page_last
_citation_journal_id_ASTM
primary 'Physical Review, Serie 3. B - Condensed ' 2006 73 144111-1 144111-9 PRBMDO
loop_
_publ_author_name
Maddox, B.R.;Yoo, C.S.;Kasinathan, D.;Pickett, W.E.;Scalettar, R.T.
_cell_length_a                     4.4874(4)
_cell_length_b                     4.2818(4)
_cell_length_c                     2.8779(2)
_cell_angle_alpha                  90.
_cell_angle_beta                   90.
_cell_angle_gamma                  90.
_cell_volume                       55.3007
_cell_formula_units_Z              2.000
_symmetry_space_group_name_H-M     'P n n m'
_symmetry_Int_Tables_number        58
_refine_ls_R_factor_all            0.0073
loop_
_symmetry_equiv_pos_site_id
_symmetry_equiv_pos_as_xyz
   1   'x+1/2, -y+1/2, z+1/2'
   2   '-x+1/2, y+1/2, z+1/2'
   3   'x, y, -z'
   4   '-x, -y, -z'
   5   '-x+1/2, y+1/2, -z+1/2'
   6   'x+1/2, -y+1/2, -z+1/2'
   7   '-x, -y, z'
   8   'x, y, z'
loop_
_atom_type_symbol
_atom_type_oxidation_number
Cr4+     4.
O2-     -2.
loop_
_atom_site_label
_atom_site_type_symbol
_atom_site_symmetry_multiplicity
_atom_site_Wyckoff_symbol
_atom_site_fract_x
_atom_site_fract_y
_atom_site_fract_z
_atom_site_B_iso_or_equiv
_atom_site_occupancy
Cr1 Cr4+ 2 a 0 0 0 0. 1.
O1 O2- 4 g 0.299(1) 0.272(1) 0 0. 1.
#End of data_155832-ICSD

###############################################################################
# Maddox, B.R.;Yoo, C.S.;Kasinathan, D.;Pickett, W.E.;Scalettar, R.T. (2006)
# Physical Review, Serie 3. B - Condensed Matter (18,1978-) 73, \
# 144111-1-144111-9
# High-pressure structure of half-metallic Cr O2
# 
# CIF by ICSD-for-WWW,  Copyright 2003 FIZ-Karlsruhe & A.W.Hewat (hewat@ill.fr)
# NOT TO BE PUBLISHED IN ANY FORM. See http://icsd.ill.fr/icsd/conditions.html
###############################################################################

data_155831-ICSD
_database_code_ICSD                155831
_audit_creation_date               2007-08-01
_chemical_name_systematic
'Chromium(IV) oxide - alpha'
_chemical_formula_structural       
'Cr O2'
_chemical_formula_sum              
'Cr1 O2'
_publ_section_title                
'Cr1 O2'
loop_
_citation_id
_citation_journal_abbrev
_citation_year
_citation_journal_volume
_citation_page_first
_citation_page_last
_citation_journal_id_ASTM
primary 'Physical Review, Serie 3. B - Condensed ' 2006 73 144111-1 144111-9 PRBMDO
loop_
_publ_author_name
Maddox, B.R.;Yoo, C.S.;Kasinathan, D.;Pickett, W.E.;Scalettar, R.T.
_cell_length_a                     4.3710(1)
_cell_length_b                     4.3710(1)
_cell_length_c                     2.8967(1)
_cell_angle_alpha                  90.
_cell_angle_beta                   90.
_cell_angle_gamma                  90.
_cell_volume                       55.3403
_cell_formula_units_Z              2.000
_symmetry_space_group_name_H-M     'P 42/m n m'
_symmetry_Int_Tables_number        136
_refine_ls_R_factor_all            0.0163
loop_
_symmetry_equiv_pos_site_id
_symmetry_equiv_pos_as_xyz
   1   '-y+1/2, x+1/2, -z+1/2'
   2   'y+1/2, -x+1/2, -z+1/2'
   3   'y, x, -z'
   4   '-y, -x, -z'
   5   'y+1/2, -x+1/2, z+1/2'
   6   '-y+1/2, x+1/2, z+1/2'
   7   '-y, -x, z'
   8   'y, x, z'
   9   'x+1/2, -y+1/2, -z+1/2'
  10   '-x+1/2, y+1/2, -z+1/2'
  11   'x, y, -z'
  12   '-x, -y, -z'
  13   '-x+1/2, y+1/2, z+1/2'
  14   'x+1/2, -y+1/2, z+1/2'
  15   '-x, -y, z'
  16   'x, y, z'
loop_
_atom_type_symbol
_atom_type_oxidation_number
Cr4+     4.
O2-     -2.
loop_
_atom_site_label
_atom_site_type_symbol
_atom_site_symmetry_multiplicity
_atom_site_Wyckoff_symbol
_atom_site_fract_x
_atom_site_fract_y
_atom_site_fract_z
_atom_site_B_iso_or_equiv
_atom_site_occupancy
Cr1 Cr4+ 2 a 0 0 0 0. 1.
O1 O2- 4 f 0.294(1) 0.294(1) 0 0. 1.
#End of data_155831-ICSD

###############################################################################
# Yang, J. (2008)
# Acta Crystallographica B (39,1983-) 64, 281-286
# Structural analysis of perovskite La Cr(1-x) Ni(x) O3 by Rietveld \
# refinement of x-ray powder diffraction data
# 
# CIF by ICSD-for-WWW,  Copyright 2003 FIZ-Karlsruhe & A.W.Hewat (hewat@ill.fr)
# NOT TO BE PUBLISHED IN ANY FORM. See http://icsd.ill.fr/icsd/conditions.html
###############################################################################

data_173470-ICSD
_database_code_ICSD                173470
_audit_creation_date               2009-02-01
_chemical_name_systematic
'Chromium oxide'
_chemical_formula_structural       
'Cr2 O3'
_chemical_formula_sum              
'Cr2 O3'
_publ_section_title                
'Cr2 O3'
loop_
_citation_id
_citation_journal_abbrev
_citation_year
_citation_journal_volume
_citation_page_first
_citation_page_last
_citation_journal_id_ASTM
primary 'Acta Crystallographica B (39,1983-)' 2008 64 281 286 ASBSDK
loop_
_publ_author_name
Yang, J.
_cell_length_a                     4.958(1)
_cell_length_b                     4.958(1)
_cell_length_c                     13.59(3)
_cell_angle_alpha                  90
_cell_angle_beta                   90
_cell_angle_gamma                  120
_cell_volume                       289.3008
_cell_formula_units_Z              6.000
_symmetry_space_group_name_H-M     'R -3 c'
_symmetry_Int_Tables_number        167
loop_
_symmetry_equiv_pos_site_id
_symmetry_equiv_pos_as_xyz
   1   'x-y, -y, -z+1/2'
   2   '-x, -x+y, -z+1/2'
   3   'y, x, -z+1/2'
   4   'x-y, x, -z'
   5   'y, -x+y, -z'
   6   '-x, -y, -z'
   7   '-x+y, y, z+1/2'
   8   'x, x-y, z+1/2'
   9   '-y, -x, z+1/2'
  10   '-x+y, -x, z'
  11   '-y, x-y, z'
  12   'x, y, z'
  13   'x-y+2/3, -y+1/3, -z+5/6'
  14   '-x+2/3, -x+y+1/3, -z+5/6'
  15   'y+2/3, x+1/3, -z+5/6'
  16   'x-y+2/3, x+1/3, -z+1/3'
  17   'y+2/3, -x+y+1/3, -z+1/3'
  18   '-x+2/3, -y+1/3, -z+1/3'
  19   '-x+y+2/3, y+1/3, z+5/6'
  20   'x+2/3, x-y+1/3, z+5/6'
  21   '-y+2/3, -x+1/3, z+5/6'
  22   '-x+y+2/3, -x+1/3, z+1/3'
  23   '-y+2/3, x-y+1/3, z+1/3'
  24   'x+2/3, y+1/3, z+1/3'
  25   'x-y+1/3, -y+2/3, -z+1/6'
  26   '-x+1/3, -x+y+2/3, -z+1/6'
  27   'y+1/3, x+2/3, -z+1/6'
  28   'x-y+1/3, x+2/3, -z+2/3'
  29   'y+1/3, -x+y+2/3, -z+2/3'
  30   '-x+1/3, -y+2/3, -z+2/3'
  31   '-x+y+1/3, y+2/3, z+1/6'
  32   'x+1/3, x-y+2/3, z+1/6'
  33   '-y+1/3, -x+2/3, z+1/6'
  34   '-x+y+1/3, -x+2/3, z+2/3'
  35   '-y+1/3, x-y+2/3, z+2/3'
  36   'x+1/3, y+2/3, z+2/3'
loop_
_atom_type_symbol
_atom_type_oxidation_number
Cr3+     3.
O2-     -2.
loop_
_atom_site_label
_atom_site_type_symbol
_atom_site_symmetry_multiplicity
_atom_site_Wyckoff_symbol
_atom_site_fract_x
_atom_site_fract_y
_atom_site_fract_z
_atom_site_B_iso_or_equiv
_atom_site_occupancy
Cr1 Cr3+ 12 c 0 0 0.3518(3) 0.6 1.0
O1 O2- 18 e 0.3194(8) 0 0.25 0.6 1.0
#End of data_173470-ICSD

###############################################################################
# Taylor, D. (1984)
# Transactions and Journal of the British Ceramic Society 83, 32-37
# Thermal expansion data: II. Binary oxides with the fluorite and rutile \
# structures, M O2, and the antifluorite structure, M2 O
# 
# CIF by ICSD-for-WWW,  Copyright 2003 FIZ-Karlsruhe & A.W.Hewat (hewat@ill.fr)
# NOT TO BE PUBLISHED IN ANY FORM. See http://icsd.ill.fr/icsd/conditions.html
###############################################################################

data_626487-ICSD
_database_code_ICSD                626487
_audit_creation_date               2012-02-01
_chemical_name_systematic
'Chromium dioxide'
_chemical_formula_structural       
'Cr O2'
_chemical_formula_sum              
'Cr1 O2'
_publ_section_title                
'Cr1 O2'
loop_
_citation_id
_citation_journal_abbrev
_citation_year
_citation_journal_volume
_citation_page_first
_citation_page_last
_citation_journal_id_ASTM
primary 'Transactions and Journal of the British ' 1984 83 32 37 TJBCAD
loop_
_publ_author_name
Taylor, D.
_cell_length_a                     4.421
_cell_length_b                     4.421
_cell_length_c                     2.916
_cell_angle_alpha                  90.0
_cell_angle_beta                   90.0
_cell_angle_gamma                  90.0
_cell_volume                       56.9901
_cell_formula_units_Z              2.000
_symmetry_space_group_name_H-M     'P 42/m n m'
_symmetry_Int_Tables_number        136
loop_
_symmetry_equiv_pos_site_id
_symmetry_equiv_pos_as_xyz
   1   '-y+1/2, x+1/2, -z+1/2'
   2   'y+1/2, -x+1/2, -z+1/2'
   3   'y, x, -z'
   4   '-y, -x, -z'
   5   'y+1/2, -x+1/2, z+1/2'
   6   '-y+1/2, x+1/2, z+1/2'
   7   '-y, -x, z'
   8   'y, x, z'
   9   'x+1/2, -y+1/2, -z+1/2'
  10   '-x+1/2, y+1/2, -z+1/2'
  11   'x, y, -z'
  12   '-x, -y, -z'
  13   '-x+1/2, y+1/2, z+1/2'
  14   'x+1/2, -y+1/2, z+1/2'
  15   '-x, -y, z'
  16   'x, y, z'
loop_
_atom_type_symbol
_atom_type_oxidation_number
Cr4+     4.
O2-     -2.
loop_
_atom_site_label
_atom_site_type_symbol
_atom_site_symmetry_multiplicity
_atom_site_Wyckoff_symbol
_atom_site_fract_x
_atom_site_fract_y
_atom_site_fract_z
_atom_site_B_iso_or_equiv
_atom_site_occupancy
Cr1 Cr4+ 2 a 0 0 0 0. 1.
O1 O2- 4 f 0.294 0.294 0 0. 1.
#End of data_626487-ICSD

###############################################################################
# Brooksbank, D.;Andrews, K.W. (1968)
# Journal of the Iron and Steel Institute (London) 206, 595-599
# Thermal expansion of some inclusions found in stells and realtion to \
# tessellated stresses
# 
# CIF by ICSD-for-WWW,  Copyright 2003 FIZ-Karlsruhe & A.W.Hewat (hewat@ill.fr)
# NOT TO BE PUBLISHED IN ANY FORM. See http://icsd.ill.fr/icsd/conditions.html
###############################################################################

data_626479-ICSD
_database_code_ICSD                626479
_audit_creation_date               2012-02-01
_chemical_name_systematic
'Chromium sesquioxide'
_chemical_formula_structural       
'Cr2 O3'
_chemical_formula_sum              
'Cr2 O3'
_publ_section_title                
'Cr2 O3'
loop_
_citation_id
_citation_journal_abbrev
_citation_year
_citation_journal_volume
_citation_page_first
_citation_page_last
_citation_journal_id_ASTM
primary 'Journal of the Iron and Steel Institute ' 1968 206 595 599 JISIAX
loop_
_publ_author_name
Brooksbank, D.;Andrews, K.W.
_cell_length_a                     4.956
_cell_length_b                     4.956
_cell_length_c                     13.586
_cell_angle_alpha                  90.
_cell_angle_beta                   90.
_cell_angle_gamma                  120.
_cell_volume                       288.9904
_cell_formula_units_Z              6.000
_symmetry_space_group_name_H-M     'R -3 c'
_symmetry_Int_Tables_number        167
loop_
_symmetry_equiv_pos_site_id
_symmetry_equiv_pos_as_xyz
   1   'x-y, -y, -z+1/2'
   2   '-x, -x+y, -z+1/2'
   3   'y, x, -z+1/2'
   4   'x-y, x, -z'
   5   'y, -x+y, -z'
   6   '-x, -y, -z'
   7   '-x+y, y, z+1/2'
   8   'x, x-y, z+1/2'
   9   '-y, -x, z+1/2'
  10   '-x+y, -x, z'
  11   '-y, x-y, z'
  12   'x, y, z'
  13   'x-y+2/3, -y+1/3, -z+5/6'
  14   '-x+2/3, -x+y+1/3, -z+5/6'
  15   'y+2/3, x+1/3, -z+5/6'
  16   'x-y+2/3, x+1/3, -z+1/3'
  17   'y+2/3, -x+y+1/3, -z+1/3'
  18   '-x+2/3, -y+1/3, -z+1/3'
  19   '-x+y+2/3, y+1/3, z+5/6'
  20   'x+2/3, x-y+1/3, z+5/6'
  21   '-y+2/3, -x+1/3, z+5/6'
  22   '-x+y+2/3, -x+1/3, z+1/3'
  23   '-y+2/3, x-y+1/3, z+1/3'
  24   'x+2/3, y+1/3, z+1/3'
  25   'x-y+1/3, -y+2/3, -z+1/6'
  26   '-x+1/3, -x+y+2/3, -z+1/6'
  27   'y+1/3, x+2/3, -z+1/6'
  28   'x-y+1/3, x+2/3, -z+2/3'
  29   'y+1/3, -x+y+2/3, -z+2/3'
  30   '-x+1/3, -y+2/3, -z+2/3'
  31   '-x+y+1/3, y+2/3, z+1/6'
  32   'x+1/3, x-y+2/3, z+1/6'
  33   '-y+1/3, -x+2/3, z+1/6'
  34   '-x+y+1/3, -x+2/3, z+2/3'
  35   '-y+1/3, x-y+2/3, z+2/3'
  36   'x+1/3, y+2/3, z+2/3'
loop_
_atom_type_symbol
_atom_type_oxidation_number
Cr3+     3.
O2-     -2.
loop_
_atom_site_label
_atom_site_type_symbol
_atom_site_symmetry_multiplicity
_atom_site_Wyckoff_symbol
_atom_site_fract_x
_atom_site_fract_y
_atom_site_fract_z
_atom_site_B_iso_or_equiv
_atom_site_occupancy
Cr1 Cr3+ 12 c 0 0 0.152 0. 1.
O1 O2- 18 e 0.307 0 0.25 0. 1.
#End of data_626479-ICSD

###############################################################################
# Belokoneva, E.L.;Shcherbakova, Yu.K. (2003)
# Zhurnal Neorganicheskoi Khimii 48, 960-968
# Electron density in synthetic escolaite Cr2 O3 with a corundum structure \
# and its relation to antiferromagnetic properties
# 
# CIF by ICSD-for-WWW,  Copyright 2003 FIZ-Karlsruhe & A.W.Hewat (hewat@ill.fr)
# NOT TO BE PUBLISHED IN ANY FORM. See http://icsd.ill.fr/icsd/conditions.html
###############################################################################

data_250078-ICSD
_database_code_ICSD                250078
_audit_creation_date               2004-04-01
_chemical_name_systematic
'Chromium oxide'
_chemical_formula_structural       
'Cr2 O3'
_chemical_formula_sum              
'Cr2 O3'
_publ_section_title                
'Cr2 O3'
loop_
_citation_id
_citation_journal_abbrev
_citation_year
_citation_journal_volume
_citation_page_first
_citation_page_last
_citation_journal_id_ASTM
primary 'Zhurnal Neorganicheskoi Khimii' 2003 48 960 968 ZNOKAQ
loop_
_publ_author_name
Belokoneva, E.L.;Shcherbakova, Yu.K.
_cell_length_a                     4.953(2)
_cell_length_b                     4.953(2)
_cell_length_c                     13.578(4)
_cell_angle_alpha                  90
_cell_angle_beta                   90
_cell_angle_gamma                  120
_cell_volume                       288.4701
_cell_formula_units_Z              6.000
_symmetry_space_group_name_H-M     'R -3 c'
_symmetry_Int_Tables_number        167
_refine_ls_R_factor_all            0.0226
loop_
_symmetry_equiv_pos_site_id
_symmetry_equiv_pos_as_xyz
   1   'x-y, -y, -z+1/2'
   2   '-x, -x+y, -z+1/2'
   3   'y, x, -z+1/2'
   4   'x-y, x, -z'
   5   'y, -x+y, -z'
   6   '-x, -y, -z'
   7   '-x+y, y, z+1/2'
   8   'x, x-y, z+1/2'
   9   '-y, -x, z+1/2'
  10   '-x+y, -x, z'
  11   '-y, x-y, z'
  12   'x, y, z'
  13   'x-y+2/3, -y+1/3, -z+5/6'
  14   '-x+2/3, -x+y+1/3, -z+5/6'
  15   'y+2/3, x+1/3, -z+5/6'
  16   'x-y+2/3, x+1/3, -z+1/3'
  17   'y+2/3, -x+y+1/3, -z+1/3'
  18   '-x+2/3, -y+1/3, -z+1/3'
  19   '-x+y+2/3, y+1/3, z+5/6'
  20   'x+2/3, x-y+1/3, z+5/6'
  21   '-y+2/3, -x+1/3, z+5/6'
  22   '-x+y+2/3, -x+1/3, z+1/3'
  23   '-y+2/3, x-y+1/3, z+1/3'
  24   'x+2/3, y+1/3, z+1/3'
  25   'x-y+1/3, -y+2/3, -z+1/6'
  26   '-x+1/3, -x+y+2/3, -z+1/6'
  27   'y+1/3, x+2/3, -z+1/6'
  28   'x-y+1/3, x+2/3, -z+2/3'
  29   'y+1/3, -x+y+2/3, -z+2/3'
  30   '-x+1/3, -y+2/3, -z+2/3'
  31   '-x+y+1/3, y+2/3, z+1/6'
  32   'x+1/3, x-y+2/3, z+1/6'
  33   '-y+1/3, -x+2/3, z+1/6'
  34   '-x+y+1/3, -x+2/3, z+2/3'
  35   '-y+1/3, x-y+2/3, z+2/3'
  36   'x+1/3, y+2/3, z+2/3'
loop_
_atom_type_symbol
_atom_type_oxidation_number
Cr3+     3.
O2-     -2.
loop_
_atom_site_label
_atom_site_type_symbol
_atom_site_symmetry_multiplicity
_atom_site_Wyckoff_symbol
_atom_site_fract_x
_atom_site_fract_y
_atom_site_fract_z
_atom_site_B_iso_or_equiv
_atom_site_occupancy
Cr1 Cr3+ 12 c 0 0 0.34745(2) 0. 1.
O1 O2- 18 e 0.69410(9) 0 0.25 0. 1.
loop_
_atom_site_aniso_label
_atom_site_aniso_type_symbol
_atom_site_aniso_U_11
_atom_site_aniso_U_22
_atom_site_aniso_U_33
_atom_site_aniso_U_12
_atom_site_aniso_U_13
_atom_site_aniso_U_23
Cr1 Cr3+ 0.0025(3) 0.0025 0.0023(3) 0.00125 0 0
O1 O2- 0.0040(4) 0.0040(6) 0.0041(6) 0.0020 0 0
#End of data_250078-ICSD

###############################################################################
# Baster, M.;Bouree, F.;Kowalska, A.;Latacz, Z. (2000)
# Journal of Alloys Compd. 296, 1-5
# The change of crystal and exchange parameters in the vicinity of TN in Cr2 O3
# 
# CIF by ICSD-for-WWW,  Copyright 2003 FIZ-Karlsruhe & A.W.Hewat (hewat@ill.fr)
# NOT TO BE PUBLISHED IN ANY FORM. See http://icsd.ill.fr/icsd/conditions.html
###############################################################################

data_90158-ICSD
_database_code_ICSD                90158
_audit_creation_date               2002-04-01
_chemical_name_systematic
'Chromium oxide'
_chemical_formula_structural       
'Cr2 O3'
_chemical_formula_sum              
'Cr2 O3'
_publ_section_title                
'Cr2 O3'
loop_
_citation_id
_citation_journal_abbrev
_citation_year
_citation_journal_volume
_citation_page_first
_citation_page_last
_citation_journal_id_ASTM
primary 'Journal of Alloys Compd.' 2000 296 1 5 JALCEU
loop_
_publ_author_name
Baster, M.;Bouree, F.;Kowalska, A.;Latacz, Z.
_cell_length_a                     4.96195(7)
_cell_length_b                     4.96195(7)
_cell_length_c                     13.5974(3)
_cell_angle_alpha                  90.
_cell_angle_beta                   90.
_cell_angle_gamma                  120.
_cell_volume                       289.9309
_cell_formula_units_Z              6.000
_symmetry_space_group_name_H-M     'R -3 c'
_symmetry_Int_Tables_number        167
_refine_ls_R_factor_all            0.029
loop_
_symmetry_equiv_pos_site_id
_symmetry_equiv_pos_as_xyz
   1   'x-y, -y, -z+1/2'
   2   '-x, -x+y, -z+1/2'
   3   'y, x, -z+1/2'
   4   'x-y, x, -z'
   5   'y, -x+y, -z'
   6   '-x, -y, -z'
   7   '-x+y, y, z+1/2'
   8   'x, x-y, z+1/2'
   9   '-y, -x, z+1/2'
  10   '-x+y, -x, z'
  11   '-y, x-y, z'
  12   'x, y, z'
  13   'x-y+2/3, -y+1/3, -z+5/6'
  14   '-x+2/3, -x+y+1/3, -z+5/6'
  15   'y+2/3, x+1/3, -z+5/6'
  16   'x-y+2/3, x+1/3, -z+1/3'
  17   'y+2/3, -x+y+1/3, -z+1/3'
  18   '-x+2/3, -y+1/3, -z+1/3'
  19   '-x+y+2/3, y+1/3, z+5/6'
  20   'x+2/3, x-y+1/3, z+5/6'
  21   '-y+2/3, -x+1/3, z+5/6'
  22   '-x+y+2/3, -x+1/3, z+1/3'
  23   '-y+2/3, x-y+1/3, z+1/3'
  24   'x+2/3, y+1/3, z+1/3'
  25   'x-y+1/3, -y+2/3, -z+1/6'
  26   '-x+1/3, -x+y+2/3, -z+1/6'
  27   'y+1/3, x+2/3, -z+1/6'
  28   'x-y+1/3, x+2/3, -z+2/3'
  29   'y+1/3, -x+y+2/3, -z+2/3'
  30   '-x+1/3, -y+2/3, -z+2/3'
  31   '-x+y+1/3, y+2/3, z+1/6'
  32   'x+1/3, x-y+2/3, z+1/6'
  33   '-y+1/3, -x+2/3, z+1/6'
  34   '-x+y+1/3, -x+2/3, z+2/3'
  35   '-y+1/3, x-y+2/3, z+2/3'
  36   'x+1/3, y+2/3, z+2/3'
loop_
_atom_type_symbol
_atom_type_oxidation_number
Cr3+     3.
O2-     -2.
loop_
_atom_site_label
_atom_site_type_symbol
_atom_site_symmetry_multiplicity
_atom_site_Wyckoff_symbol
_atom_site_fract_x
_atom_site_fract_y
_atom_site_fract_z
_atom_site_B_iso_or_equiv
_atom_site_occupancy
Cr1 Cr3+ 12 c 0 0 0.34757(8) 0. 1.
O1 O2- 18 e 0.30583(10) 0 0.25 0. 1.
#End of data_90158-ICSD

###############################################################################
# Baster, M.;Bouree, F.;Kowalska, A.;Latacz, Z. (2000)
# Journal of Alloys Compd. 296, 1-5
# The change of crystal and exchange parameters in the vicinity of TN in Cr2 O3
# 
# CIF by ICSD-for-WWW,  Copyright 2003 FIZ-Karlsruhe & A.W.Hewat (hewat@ill.fr)
# NOT TO BE PUBLISHED IN ANY FORM. See http://icsd.ill.fr/icsd/conditions.html
###############################################################################

data_90157-ICSD
_database_code_ICSD                90157
_audit_creation_date               2002-04-01
_chemical_name_systematic
'Chromium oxide'
_chemical_formula_structural       
'Cr2 O3'
_chemical_formula_sum              
'Cr2 O3'
_publ_section_title                
'Cr2 O3'
loop_
_citation_id
_citation_journal_abbrev
_citation_year
_citation_journal_volume
_citation_page_first
_citation_page_last
_citation_journal_id_ASTM
primary 'Journal of Alloys Compd.' 2000 296 1 5 JALCEU
loop_
_publ_author_name
Baster, M.;Bouree, F.;Kowalska, A.;Latacz, Z.
_cell_length_a                     4.96004(6)
_cell_length_b                     4.96004(6)
_cell_length_c                     13.5982(2)
_cell_angle_alpha                  90.
_cell_angle_beta                   90.
_cell_angle_gamma                  120.
_cell_volume                       289.7202
_cell_formula_units_Z              6.000
_symmetry_space_group_name_H-M     'R -3 c'
_symmetry_Int_Tables_number        167
_refine_ls_R_factor_all            0.0208
loop_
_symmetry_equiv_pos_site_id
_symmetry_equiv_pos_as_xyz
   1   'x-y, -y, -z+1/2'
   2   '-x, -x+y, -z+1/2'
   3   'y, x, -z+1/2'
   4   'x-y, x, -z'
   5   'y, -x+y, -z'
   6   '-x, -y, -z'
   7   '-x+y, y, z+1/2'
   8   'x, x-y, z+1/2'
   9   '-y, -x, z+1/2'
  10   '-x+y, -x, z'
  11   '-y, x-y, z'
  12   'x, y, z'
  13   'x-y+2/3, -y+1/3, -z+5/6'
  14   '-x+2/3, -x+y+1/3, -z+5/6'
  15   'y+2/3, x+1/3, -z+5/6'
  16   'x-y+2/3, x+1/3, -z+1/3'
  17   'y+2/3, -x+y+1/3, -z+1/3'
  18   '-x+2/3, -y+1/3, -z+1/3'
  19   '-x+y+2/3, y+1/3, z+5/6'
  20   'x+2/3, x-y+1/3, z+5/6'
  21   '-y+2/3, -x+1/3, z+5/6'
  22   '-x+y+2/3, -x+1/3, z+1/3'
  23   '-y+2/3, x-y+1/3, z+1/3'
  24   'x+2/3, y+1/3, z+1/3'
  25   'x-y+1/3, -y+2/3, -z+1/6'
  26   '-x+1/3, -x+y+2/3, -z+1/6'
  27   'y+1/3, x+2/3, -z+1/6'
  28   'x-y+1/3, x+2/3, -z+2/3'
  29   'y+1/3, -x+y+2/3, -z+2/3'
  30   '-x+1/3, -y+2/3, -z+2/3'
  31   '-x+y+1/3, y+2/3, z+1/6'
  32   'x+1/3, x-y+2/3, z+1/6'
  33   '-y+1/3, -x+2/3, z+1/6'
  34   '-x+y+1/3, -x+2/3, z+2/3'
  35   '-y+1/3, x-y+2/3, z+2/3'
  36   'x+1/3, y+2/3, z+2/3'
loop_
_atom_type_symbol
_atom_type_oxidation_number
Cr3+     3.
O2-     -2.
loop_
_atom_site_label
_atom_site_type_symbol
_atom_site_symmetry_multiplicity
_atom_site_Wyckoff_symbol
_atom_site_fract_x
_atom_site_fract_y
_atom_site_fract_z
_atom_site_B_iso_or_equiv
_atom_site_occupancy
Cr1 Cr3+ 12 c 0 0 0.34756(8) 0. 1.
O1 O2- 18 e 0.30590(9) 0 0.25 0. 1.
#End of data_90157-ICSD

###############################################################################
# Battle, P.D.;Gibb, T.C.;Nixon, S.;Harrison, W.T.A. (1988)
# Journal of Solid State Chemistry 75, 21-29
# The Magnetic Properties of the Synthetic Langbeinite K Ba Cr2 (P O4)3
# 
# CIF by ICSD-for-WWW,  Copyright 2003 FIZ-Karlsruhe & A.W.Hewat (hewat@ill.fr)
# NOT TO BE PUBLISHED IN ANY FORM. See http://icsd.ill.fr/icsd/conditions.html
###############################################################################

data_202619-ICSD
_database_code_ICSD                202619
_audit_creation_date               1989-06-19
_chemical_name_systematic
'Dichromium trioxide'
_chemical_formula_structural       
'Cr2 O3'
_chemical_formula_sum              
'Cr2 O3'
_publ_section_title                
'Cr2 O3'
loop_
_citation_id
_citation_journal_abbrev
_citation_year
_citation_journal_volume
_citation_page_first
_citation_page_last
_citation_journal_id_ASTM
primary 'Journal of Solid State Chemistry' 1988 75 21 29 JSSCBI
loop_
_publ_author_name
Battle, P.D.;Gibb, T.C.;Nixon, S.;Harrison, W.T.A.
_cell_length_a                     4.9516(4)
_cell_length_b                     4.9516(4)
_cell_length_c                     13.5987(6)
_cell_angle_alpha                  90.
_cell_angle_beta                   90.
_cell_angle_gamma                  120.
_cell_volume                       288.751
_cell_formula_units_Z              6.000
_symmetry_space_group_name_H-M     'R -3 c'
_symmetry_Int_Tables_number        167
_refine_ls_R_factor_all            0.0802
loop_
_symmetry_equiv_pos_site_id
_symmetry_equiv_pos_as_xyz
   1   'x-y, -y, -z+1/2'
   2   '-x, -x+y, -z+1/2'
   3   'y, x, -z+1/2'
   4   'x-y, x, -z'
   5   'y, -x+y, -z'
   6   '-x, -y, -z'
   7   '-x+y, y, z+1/2'
   8   'x, x-y, z+1/2'
   9   '-y, -x, z+1/2'
  10   '-x+y, -x, z'
  11   '-y, x-y, z'
  12   'x, y, z'
  13   'x-y+2/3, -y+1/3, -z+5/6'
  14   '-x+2/3, -x+y+1/3, -z+5/6'
  15   'y+2/3, x+1/3, -z+5/6'
  16   'x-y+2/3, x+1/3, -z+1/3'
  17   'y+2/3, -x+y+1/3, -z+1/3'
  18   '-x+2/3, -y+1/3, -z+1/3'
  19   '-x+y+2/3, y+1/3, z+5/6'
  20   'x+2/3, x-y+1/3, z+5/6'
  21   '-y+2/3, -x+1/3, z+5/6'
  22   '-x+y+2/3, -x+1/3, z+1/3'
  23   '-y+2/3, x-y+1/3, z+1/3'
  24   'x+2/3, y+1/3, z+1/3'
  25   'x-y+1/3, -y+2/3, -z+1/6'
  26   '-x+1/3, -x+y+2/3, -z+1/6'
  27   'y+1/3, x+2/3, -z+1/6'
  28   'x-y+1/3, x+2/3, -z+2/3'
  29   'y+1/3, -x+y+2/3, -z+2/3'
  30   '-x+1/3, -y+2/3, -z+2/3'
  31   '-x+y+1/3, y+2/3, z+1/6'
  32   'x+1/3, x-y+2/3, z+1/6'
  33   '-y+1/3, -x+2/3, z+1/6'
  34   '-x+y+1/3, -x+2/3, z+2/3'
  35   '-y+1/3, x-y+2/3, z+2/3'
  36   'x+1/3, y+2/3, z+2/3'
loop_
_atom_type_symbol
_atom_type_oxidation_number
Cr3+     3.
O2-     -2.
loop_
_atom_site_label
_atom_site_type_symbol
_atom_site_symmetry_multiplicity
_atom_site_Wyckoff_symbol
_atom_site_fract_x
_atom_site_fract_y
_atom_site_fract_z
_atom_site_B_iso_or_equiv
_atom_site_occupancy
Cr1 Cr3+ 12 c 0 0 0.3498(5) 0. 1.
O1 O2- 18 e 0.3067(9) 0 0.25 0. 1.
#End of data_202619-ICSD

###############################################################################
# Finger, L.W.;Hazen, R.M. (1980)
# Journal of Applied Physics 51, 5362-5367
# Crystal structure and isothermal compression of Fe2 O3, Cr2 O3 and V2 O3 to \
# 50 kbars
# 
# CIF by ICSD-for-WWW,  Copyright 2003 FIZ-Karlsruhe & A.W.Hewat (hewat@ill.fr)
# NOT TO BE PUBLISHED IN ANY FORM. See http://icsd.ill.fr/icsd/conditions.html
###############################################################################

data_201105-ICSD
_database_code_ICSD                201105
_audit_creation_date               1980-12-31
_chemical_name_systematic
'Dichromium trioxide'
_chemical_formula_structural       
'Cr2 O3'
_chemical_formula_sum              
'Cr2 O3'
_publ_section_title                
'Cr2 O3'
loop_
_citation_id
_citation_journal_abbrev
_citation_year
_citation_journal_volume
_citation_page_first
_citation_page_last
_citation_journal_id_ASTM
primary 'Journal of Applied Physics' 1980 51 5362 5367 JAPIAU
loop_
_publ_author_name
Finger, L.W.;Hazen, R.M.
_cell_length_a                     4.9128(2)
_cell_length_b                     4.9128(2)
_cell_length_c                     13.4689(6)
_cell_angle_alpha                  90.
_cell_angle_beta                   90.
_cell_angle_gamma                  120.
_cell_volume                       281.5301
_cell_formula_units_Z              6.000
_symmetry_space_group_name_H-M     'R -3 c'
_symmetry_Int_Tables_number        167
_refine_ls_R_factor_all            0.0244
loop_
_symmetry_equiv_pos_site_id
_symmetry_equiv_pos_as_xyz
   1   'x-y, -y, -z+1/2'
   2   '-x, -x+y, -z+1/2'
   3   'y, x, -z+1/2'
   4   'x-y, x, -z'
   5   'y, -x+y, -z'
   6   '-x, -y, -z'
   7   '-x+y, y, z+1/2'
   8   'x, x-y, z+1/2'
   9   '-y, -x, z+1/2'
  10   '-x+y, -x, z'
  11   '-y, x-y, z'
  12   'x, y, z'
  13   'x-y+2/3, -y+1/3, -z+5/6'
  14   '-x+2/3, -x+y+1/3, -z+5/6'
  15   'y+2/3, x+1/3, -z+5/6'
  16   'x-y+2/3, x+1/3, -z+1/3'
  17   'y+2/3, -x+y+1/3, -z+1/3'
  18   '-x+2/3, -y+1/3, -z+1/3'
  19   '-x+y+2/3, y+1/3, z+5/6'
  20   'x+2/3, x-y+1/3, z+5/6'
  21   '-y+2/3, -x+1/3, z+5/6'
  22   '-x+y+2/3, -x+1/3, z+1/3'
  23   '-y+2/3, x-y+1/3, z+1/3'
  24   'x+2/3, y+1/3, z+1/3'
  25   'x-y+1/3, -y+2/3, -z+1/6'
  26   '-x+1/3, -x+y+2/3, -z+1/6'
  27   'y+1/3, x+2/3, -z+1/6'
  28   'x-y+1/3, x+2/3, -z+2/3'
  29   'y+1/3, -x+y+2/3, -z+2/3'
  30   '-x+1/3, -y+2/3, -z+2/3'
  31   '-x+y+1/3, y+2/3, z+1/6'
  32   'x+1/3, x-y+2/3, z+1/6'
  33   '-y+1/3, -x+2/3, z+1/6'
  34   '-x+y+1/3, -x+2/3, z+2/3'
  35   '-y+1/3, x-y+2/3, z+2/3'
  36   'x+1/3, y+2/3, z+2/3'
loop_
_atom_type_symbol
_atom_type_oxidation_number
Cr3+     3.
O2-     -2.
loop_
_atom_site_label
_atom_site_type_symbol
_atom_site_symmetry_multiplicity
_atom_site_Wyckoff_symbol
_atom_site_fract_x
_atom_site_fract_y
_atom_site_fract_z
_atom_site_B_iso_or_equiv
_atom_site_occupancy
Cr1 Cr3+ 12 c 0 0 0.3475(2) 0.38(5) 1.
O1 O2- 18 e 0.3019(16) 0 0.25 0.08(12) 1.
#End of data_201105-ICSD

###############################################################################
# Finger, L.W.;Hazen, R.M. (1980)
# Journal of Applied Physics 51, 5362-5367
# Crystal structure and isothermal compression of Fe2 O3, Cr2 O3 and V2 O3 to \
# 50 kbars
# 
# CIF by ICSD-for-WWW,  Copyright 2003 FIZ-Karlsruhe & A.W.Hewat (hewat@ill.fr)
# NOT TO BE PUBLISHED IN ANY FORM. See http://icsd.ill.fr/icsd/conditions.html
###############################################################################

data_201104-ICSD
_database_code_ICSD                201104
_audit_creation_date               1980-12-31
_chemical_name_systematic
'Dichromium trioxide'
_chemical_formula_structural       
'Cr2 O3'
_chemical_formula_sum              
'Cr2 O3'
_publ_section_title                
'Cr2 O3'
loop_
_citation_id
_citation_journal_abbrev
_citation_year
_citation_journal_volume
_citation_page_first
_citation_page_last
_citation_journal_id_ASTM
primary 'Journal of Applied Physics' 1980 51 5362 5367 JAPIAU
loop_
_publ_author_name
Finger, L.W.;Hazen, R.M.
_cell_length_a                     4.9230(4)
_cell_length_b                     4.9230(4)
_cell_length_c                     13.4953(8)
_cell_angle_alpha                  90.
_cell_angle_beta                   90.
_cell_angle_gamma                  120.
_cell_volume                       283.251
_cell_formula_units_Z              6.000
_symmetry_space_group_name_H-M     'R -3 c'
_symmetry_Int_Tables_number        167
_refine_ls_R_factor_all            0.0316
loop_
_symmetry_equiv_pos_site_id
_symmetry_equiv_pos_as_xyz
   1   'x-y, -y, -z+1/2'
   2   '-x, -x+y, -z+1/2'
   3   'y, x, -z+1/2'
   4   'x-y, x, -z'
   5   'y, -x+y, -z'
   6   '-x, -y, -z'
   7   '-x+y, y, z+1/2'
   8   'x, x-y, z+1/2'
   9   '-y, -x, z+1/2'
  10   '-x+y, -x, z'
  11   '-y, x-y, z'
  12   'x, y, z'
  13   'x-y+2/3, -y+1/3, -z+5/6'
  14   '-x+2/3, -x+y+1/3, -z+5/6'
  15   'y+2/3, x+1/3, -z+5/6'
  16   'x-y+2/3, x+1/3, -z+1/3'
  17   'y+2/3, -x+y+1/3, -z+1/3'
  18   '-x+2/3, -y+1/3, -z+1/3'
  19   '-x+y+2/3, y+1/3, z+5/6'
  20   'x+2/3, x-y+1/3, z+5/6'
  21   '-y+2/3, -x+1/3, z+5/6'
  22   '-x+y+2/3, -x+1/3, z+1/3'
  23   '-y+2/3, x-y+1/3, z+1/3'
  24   'x+2/3, y+1/3, z+1/3'
  25   'x-y+1/3, -y+2/3, -z+1/6'
  26   '-x+1/3, -x+y+2/3, -z+1/6'
  27   'y+1/3, x+2/3, -z+1/6'
  28   'x-y+1/3, x+2/3, -z+2/3'
  29   'y+1/3, -x+y+2/3, -z+2/3'
  30   '-x+1/3, -y+2/3, -z+2/3'
  31   '-x+y+1/3, y+2/3, z+1/6'
  32   'x+1/3, x-y+2/3, z+1/6'
  33   '-y+1/3, -x+2/3, z+1/6'
  34   '-x+y+1/3, -x+2/3, z+2/3'
  35   '-y+1/3, x-y+2/3, z+2/3'
  36   'x+1/3, y+2/3, z+2/3'
loop_
_atom_type_symbol
_atom_type_oxidation_number
Cr3+     3.
O2-     -2.
loop_
_atom_site_label
_atom_site_type_symbol
_atom_site_symmetry_multiplicity
_atom_site_Wyckoff_symbol
_atom_site_fract_x
_atom_site_fract_y
_atom_site_fract_z
_atom_site_B_iso_or_equiv
_atom_site_occupancy
Cr1 Cr3+ 12 c 0 0 0.3477(2) 0.41(6) 1.
O1 O2- 18 e 0.3022(22) 0 0.25 0.33(15) 1.
#End of data_201104-ICSD

###############################################################################
# Finger, L.W.;Hazen, R.M. (1980)
# Journal of Applied Physics 51, 5362-5367
# Crystal structure and isothermal compression of Fe2 O3, Cr2 O3 and V2 O3 to \
# 50 kbars
# 
# CIF by ICSD-for-WWW,  Copyright 2003 FIZ-Karlsruhe & A.W.Hewat (hewat@ill.fr)
# NOT TO BE PUBLISHED IN ANY FORM. See http://icsd.ill.fr/icsd/conditions.html
###############################################################################

data_201103-ICSD
_database_code_ICSD                201103
_audit_creation_date               1980-12-31
_chemical_name_systematic
'Dichromium trioxide'
_chemical_formula_structural       
'Cr2 O3'
_chemical_formula_sum              
'Cr2 O3'
_publ_section_title                
'Cr2 O3'
loop_
_citation_id
_citation_journal_abbrev
_citation_year
_citation_journal_volume
_citation_page_first
_citation_page_last
_citation_journal_id_ASTM
primary 'Journal of Applied Physics' 1980 51 5362 5367 JAPIAU
loop_
_publ_author_name
Finger, L.W.;Hazen, R.M.
_cell_length_a                     4.9372(4)
_cell_length_b                     4.9372(4)
_cell_length_c                     13.530(1)
_cell_angle_alpha                  90.
_cell_angle_beta                   90.
_cell_angle_gamma                  120.
_cell_volume                       285.6207
_cell_formula_units_Z              6.000
_symmetry_space_group_name_H-M     'R -3 c'
_symmetry_Int_Tables_number        167
_refine_ls_R_factor_all            0.029
loop_
_symmetry_equiv_pos_site_id
_symmetry_equiv_pos_as_xyz
   1   'x-y, -y, -z+1/2'
   2   '-x, -x+y, -z+1/2'
   3   'y, x, -z+1/2'
   4   'x-y, x, -z'
   5   'y, -x+y, -z'
   6   '-x, -y, -z'
   7   '-x+y, y, z+1/2'
   8   'x, x-y, z+1/2'
   9   '-y, -x, z+1/2'
  10   '-x+y, -x, z'
  11   '-y, x-y, z'
  12   'x, y, z'
  13   'x-y+2/3, -y+1/3, -z+5/6'
  14   '-x+2/3, -x+y+1/3, -z+5/6'
  15   'y+2/3, x+1/3, -z+5/6'
  16   'x-y+2/3, x+1/3, -z+1/3'
  17   'y+2/3, -x+y+1/3, -z+1/3'
  18   '-x+2/3, -y+1/3, -z+1/3'
  19   '-x+y+2/3, y+1/3, z+5/6'
  20   'x+2/3, x-y+1/3, z+5/6'
  21   '-y+2/3, -x+1/3, z+5/6'
  22   '-x+y+2/3, -x+1/3, z+1/3'
  23   '-y+2/3, x-y+1/3, z+1/3'
  24   'x+2/3, y+1/3, z+1/3'
  25   'x-y+1/3, -y+2/3, -z+1/6'
  26   '-x+1/3, -x+y+2/3, -z+1/6'
  27   'y+1/3, x+2/3, -z+1/6'
  28   'x-y+1/3, x+2/3, -z+2/3'
  29   'y+1/3, -x+y+2/3, -z+2/3'
  30   '-x+1/3, -y+2/3, -z+2/3'
  31   '-x+y+1/3, y+2/3, z+1/6'
  32   'x+1/3, x-y+2/3, z+1/6'
  33   '-y+1/3, -x+2/3, z+1/6'
  34   '-x+y+1/3, -x+2/3, z+2/3'
  35   '-y+1/3, x-y+2/3, z+2/3'
  36   'x+1/3, y+2/3, z+2/3'
loop_
_atom_type_symbol
_atom_type_oxidation_number
Cr3+     3.
O2-     -2.
loop_
_atom_site_label
_atom_site_type_symbol
_atom_site_symmetry_multiplicity
_atom_site_Wyckoff_symbol
_atom_site_fract_x
_atom_site_fract_y
_atom_site_fract_z
_atom_site_B_iso_or_equiv
_atom_site_occupancy
Cr1 Cr3+ 12 c 0 0 0.3475(2) 0.53(6) 1.
O1 O2- 18 e 0.3059(18) 0 0.25 0.41(12) 1.
#End of data_201103-ICSD

###############################################################################
# Finger, L.W.;Hazen, R.M. (1980)
# Journal of Applied Physics 51, 5362-5367
# Crystal structure and isothermal compression of Fe2 O3, Cr2 O3 and V2 O3 to \
# 50 kbars
# 
# CIF by ICSD-for-WWW,  Copyright 2003 FIZ-Karlsruhe & A.W.Hewat (hewat@ill.fr)
# NOT TO BE PUBLISHED IN ANY FORM. See http://icsd.ill.fr/icsd/conditions.html
###############################################################################

data_201102-ICSD
_database_code_ICSD                201102
_audit_creation_date               1980-12-31
_chemical_name_systematic
'Dichromium trioxide'
_chemical_formula_structural       
'Cr2 O3'
_chemical_formula_sum              
'Cr2 O3'
_publ_section_title                
'Cr2 O3'
loop_
_citation_id
_citation_journal_abbrev
_citation_year
_citation_journal_volume
_citation_page_first
_citation_page_last
_citation_journal_id_ASTM
primary 'Journal of Applied Physics' 1980 51 5362 5367 JAPIAU
loop_
_publ_author_name
Finger, L.W.;Hazen, R.M.
_cell_length_a                     4.9507(4)
_cell_length_b                     4.9507(4)
_cell_length_c                     13.5656(7)
_cell_angle_alpha                  90.
_cell_angle_beta                   90.
_cell_angle_gamma                  120.
_cell_volume                       287.941
_cell_formula_units_Z              6.000
_symmetry_space_group_name_H-M     'R -3 c'
_symmetry_Int_Tables_number        167
_refine_ls_R_factor_all            0.0208
loop_
_symmetry_equiv_pos_site_id
_symmetry_equiv_pos_as_xyz
   1   'x-y, -y, -z+1/2'
   2   '-x, -x+y, -z+1/2'
   3   'y, x, -z+1/2'
   4   'x-y, x, -z'
   5   'y, -x+y, -z'
   6   '-x, -y, -z'
   7   '-x+y, y, z+1/2'
   8   'x, x-y, z+1/2'
   9   '-y, -x, z+1/2'
  10   '-x+y, -x, z'
  11   '-y, x-y, z'
  12   'x, y, z'
  13   'x-y+2/3, -y+1/3, -z+5/6'
  14   '-x+2/3, -x+y+1/3, -z+5/6'
  15   'y+2/3, x+1/3, -z+5/6'
  16   'x-y+2/3, x+1/3, -z+1/3'
  17   'y+2/3, -x+y+1/3, -z+1/3'
  18   '-x+2/3, -y+1/3, -z+1/3'
  19   '-x+y+2/3, y+1/3, z+5/6'
  20   'x+2/3, x-y+1/3, z+5/6'
  21   '-y+2/3, -x+1/3, z+5/6'
  22   '-x+y+2/3, -x+1/3, z+1/3'
  23   '-y+2/3, x-y+1/3, z+1/3'
  24   'x+2/3, y+1/3, z+1/3'
  25   'x-y+1/3, -y+2/3, -z+1/6'
  26   '-x+1/3, -x+y+2/3, -z+1/6'
  27   'y+1/3, x+2/3, -z+1/6'
  28   'x-y+1/3, x+2/3, -z+2/3'
  29   'y+1/3, -x+y+2/3, -z+2/3'
  30   '-x+1/3, -y+2/3, -z+2/3'
  31   '-x+y+1/3, y+2/3, z+1/6'
  32   'x+1/3, x-y+2/3, z+1/6'
  33   '-y+1/3, -x+2/3, z+1/6'
  34   '-x+y+1/3, -x+2/3, z+2/3'
  35   '-y+1/3, x-y+2/3, z+2/3'
  36   'x+1/3, y+2/3, z+2/3'
loop_
_atom_type_symbol
_atom_type_oxidation_number
Cr3+     3.
O2-     -2.
loop_
_atom_site_label
_atom_site_type_symbol
_atom_site_symmetry_multiplicity
_atom_site_Wyckoff_symbol
_atom_site_fract_x
_atom_site_fract_y
_atom_site_fract_z
_atom_site_B_iso_or_equiv
_atom_site_occupancy
Cr1 Cr3+ 12 c 0 0 0.34766(3) 0.25(1) 1.
O1 O2- 18 e 0.3051(4) 0 0.25 0.28(3) 1.
#End of data_201102-ICSD

###############################################################################
# Burdett, J.K.;Miller, G.J.;Richardson, J.W.jr.;Smith, J.V. (1988)
# Journal of the American Chemical Society 110, 8064-8071
# Low-Temperature Neutron Powder Diffraction Study of Cr O2 and the Validity \
# of the Jahn-Teller Viewpoint
# 
# CIF by ICSD-for-WWW,  Copyright 2003 FIZ-Karlsruhe & A.W.Hewat (hewat@ill.fr)
# NOT TO BE PUBLISHED IN ANY FORM. See http://icsd.ill.fr/icsd/conditions.html
###############################################################################

data_202838-ICSD
_database_code_ICSD                202838
_audit_creation_date               1989-06-19
_chemical_name_systematic
'Chromium(IV) dioxide'
_chemical_formula_structural       
'Cr O2'
_chemical_formula_sum              
'Cr1 O2'
_publ_section_title                
'Cr1 O2'
loop_
_citation_id
_citation_journal_abbrev
_citation_year
_citation_journal_volume
_citation_page_first
_citation_page_last
_citation_journal_id_ASTM
primary 'Journal of the American Chemical Society' 1988 110 8064 8071 JACSAT
loop_
_publ_author_name
Burdett, J.K.;Miller, G.J.;Richardson, J.W.jr.;Smith, J.V.
_cell_length_a                     4.41632(4)
_cell_length_b                     4.41632(4)
_cell_length_c                     2.91736(4)
_cell_angle_alpha                  90.
_cell_angle_beta                   90.
_cell_angle_gamma                  90.
_cell_volume                       56.901
_cell_formula_units_Z              2.000
_symmetry_space_group_name_H-M     'P 42/m n m'
_symmetry_Int_Tables_number        136
_refine_ls_R_factor_all            0.0686
loop_
_symmetry_equiv_pos_site_id
_symmetry_equiv_pos_as_xyz
   1   '-y+1/2, x+1/2, -z+1/2'
   2   'y+1/2, -x+1/2, -z+1/2'
   3   'y, x, -z'
   4   '-y, -x, -z'
   5   'y+1/2, -x+1/2, z+1/2'
   6   '-y+1/2, x+1/2, z+1/2'
   7   '-y, -x, z'
   8   'y, x, z'
   9   'x+1/2, -y+1/2, -z+1/2'
  10   '-x+1/2, y+1/2, -z+1/2'
  11   'x, y, -z'
  12   '-x, -y, -z'
  13   '-x+1/2, y+1/2, z+1/2'
  14   'x+1/2, -y+1/2, z+1/2'
  15   '-x, -y, z'
  16   'x, y, z'
loop_
_atom_type_symbol
_atom_type_oxidation_number
Cr4+     4.
O2-     -2.
loop_
_atom_site_label
_atom_site_type_symbol
_atom_site_symmetry_multiplicity
_atom_site_Wyckoff_symbol
_atom_site_fract_x
_atom_site_fract_y
_atom_site_fract_z
_atom_site_B_iso_or_equiv
_atom_site_occupancy
Cr1 Cr4+ 2 a 0 0 0 0. 1.
O1 O2- 4 f 0.30225(8) 0.30225(8) 0 0. 1.
loop_
_atom_site_aniso_label
_atom_site_aniso_type_symbol
_atom_site_aniso_U_11
_atom_site_aniso_U_22
_atom_site_aniso_U_33
_atom_site_aniso_U_12
_atom_site_aniso_U_13
_atom_site_aniso_U_23
Cr1 Cr4+ 0.0025(2) 0.0025(2) 0.0001(3) 0.0003(3) 0 0
O1 O2- 0.0040(1) 0.0040(1) 0.0027(2) -.0009(2) 0 0
#End of data_202838-ICSD

###############################################################################
# Burdett, J.K.;Miller, G.J.;Richardson, J.W.jr.;Smith, J.V. (1988)
# Journal of the American Chemical Society 110, 8064-8071
# Low-Temperature Neutron Powder Diffraction Study of Cr O2 and the Validity \
# of the Jahn-Teller Viewpoint
# 
# CIF by ICSD-for-WWW,  Copyright 2003 FIZ-Karlsruhe & A.W.Hewat (hewat@ill.fr)
# NOT TO BE PUBLISHED IN ANY FORM. See http://icsd.ill.fr/icsd/conditions.html
###############################################################################

data_202837-ICSD
_database_code_ICSD                202837
_audit_creation_date               1989-06-19
_chemical_name_systematic
'Chromium(IV) dioxide'
_chemical_formula_structural       
'Cr O2'
_chemical_formula_sum              
'Cr1 O2'
_publ_section_title                
'Cr1 O2'
loop_
_citation_id
_citation_journal_abbrev
_citation_year
_citation_journal_volume
_citation_page_first
_citation_page_last
_citation_journal_id_ASTM
primary 'Journal of the American Chemical Society' 1988 110 8064 8071 JACSAT
loop_
_publ_author_name
Burdett, J.K.;Miller, G.J.;Richardson, J.W.jr.;Smith, J.V.
_cell_length_a                     4.41782(4)
_cell_length_b                     4.41782(4)
_cell_length_c                     2.91697(4)
_cell_angle_alpha                  90.
_cell_angle_beta                   90.
_cell_angle_gamma                  90.
_cell_volume                       56.9307
_cell_formula_units_Z              2.000
_symmetry_space_group_name_H-M     'P 42/m n m'
_symmetry_Int_Tables_number        136
_refine_ls_R_factor_all            0.0721
loop_
_symmetry_equiv_pos_site_id
_symmetry_equiv_pos_as_xyz
   1   '-y+1/2, x+1/2, -z+1/2'
   2   'y+1/2, -x+1/2, -z+1/2'
   3   'y, x, -z'
   4   '-y, -x, -z'
   5   'y+1/2, -x+1/2, z+1/2'
   6   '-y+1/2, x+1/2, z+1/2'
   7   '-y, -x, z'
   8   'y, x, z'
   9   'x+1/2, -y+1/2, -z+1/2'
  10   '-x+1/2, y+1/2, -z+1/2'
  11   'x, y, -z'
  12   '-x, -y, -z'
  13   '-x+1/2, y+1/2, z+1/2'
  14   'x+1/2, -y+1/2, z+1/2'
  15   '-x, -y, z'
  16   'x, y, z'
loop_
_atom_type_symbol
_atom_type_oxidation_number
Cr4+     4.
O2-     -2.
loop_
_atom_site_label
_atom_site_type_symbol
_atom_site_symmetry_multiplicity
_atom_site_Wyckoff_symbol
_atom_site_fract_x
_atom_site_fract_y
_atom_site_fract_z
_atom_site_B_iso_or_equiv
_atom_site_occupancy
Cr1 Cr4+ 2 a 0 0 0 0. 1.
O1 O2- 4 f 0.30226(8) 0.30226(8) 0 0. 1.
loop_
_atom_site_aniso_label
_atom_site_aniso_type_symbol
_atom_site_aniso_U_11
_atom_site_aniso_U_22
_atom_site_aniso_U_33
_atom_site_aniso_U_12
_atom_site_aniso_U_13
_atom_site_aniso_U_23
Cr1 Cr4+ 0.0035(3) 0.0035(3) 0.0001(4) 0.0003(4) 0 0
O1 O2- 0.0048(2) 0.0048(2) 0.0035(2) -.0011(2) 0 0
#End of data_202837-ICSD

###############################################################################
# Burdett, J.K.;Miller, G.J.;Richardson, J.W.jr.;Smith, J.V. (1988)
# Journal of the American Chemical Society 110, 8064-8071
# Low-Temperature Neutron Powder Diffraction Study of Cr O2 and the Validity \
# of the Jahn-Teller Viewpoint
# 
# CIF by ICSD-for-WWW,  Copyright 2003 FIZ-Karlsruhe & A.W.Hewat (hewat@ill.fr)
# NOT TO BE PUBLISHED IN ANY FORM. See http://icsd.ill.fr/icsd/conditions.html
###############################################################################

data_202836-ICSD
_database_code_ICSD                202836
_audit_creation_date               1989-06-19
_chemical_name_systematic
'Chromium(IV) dioxide'
_chemical_formula_structural       
'Cr O2'
_chemical_formula_sum              
'Cr1 O2'
_publ_section_title                
'Cr1 O2'
loop_
_citation_id
_citation_journal_abbrev
_citation_year
_citation_journal_volume
_citation_page_first
_citation_page_last
_citation_journal_id_ASTM
primary 'Journal of the American Chemical Society' 1988 110 8064 8071 JACSAT
loop_
_publ_author_name
Burdett, J.K.;Miller, G.J.;Richardson, J.W.jr.;Smith, J.V.
_cell_length_a                     4.42193(4)
_cell_length_b                     4.42193(4)
_cell_length_c                     2.91659(4)
_cell_angle_alpha                  90.
_cell_angle_beta                   90.
_cell_angle_gamma                  90.
_cell_volume                       57.0305
_cell_formula_units_Z              2.000
_symmetry_space_group_name_H-M     'P 42/m n m'
_symmetry_Int_Tables_number        136
_refine_ls_R_factor_all            0.0695
loop_
_symmetry_equiv_pos_site_id
_symmetry_equiv_pos_as_xyz
   1   '-y+1/2, x+1/2, -z+1/2'
   2   'y+1/2, -x+1/2, -z+1/2'
   3   'y, x, -z'
   4   '-y, -x, -z'
   5   'y+1/2, -x+1/2, z+1/2'
   6   '-y+1/2, x+1/2, z+1/2'
   7   '-y, -x, z'
   8   'y, x, z'
   9   'x+1/2, -y+1/2, -z+1/2'
  10   '-x+1/2, y+1/2, -z+1/2'
  11   'x, y, -z'
  12   '-x, -y, -z'
  13   '-x+1/2, y+1/2, z+1/2'
  14   'x+1/2, -y+1/2, z+1/2'
  15   '-x, -y, z'
  16   'x, y, z'
loop_
_atom_type_symbol
_atom_type_oxidation_number
Cr4+     4.
O2-     -2.
loop_
_atom_site_label
_atom_site_type_symbol
_atom_site_symmetry_multiplicity
_atom_site_Wyckoff_symbol
_atom_site_fract_x
_atom_site_fract_y
_atom_site_fract_z
_atom_site_B_iso_or_equiv
_atom_site_occupancy
Cr1 Cr4+ 2 a 0 0 0 0. 1.
O1 O2- 4 f 0.30240(8) 0.30240(8) 0 0. 1.
loop_
_atom_site_aniso_label
_atom_site_aniso_type_symbol
_atom_site_aniso_U_11
_atom_site_aniso_U_22
_atom_site_aniso_U_33
_atom_site_aniso_U_12
_atom_site_aniso_U_13
_atom_site_aniso_U_23
Cr1 Cr4+ 0.0046(3) 0.0046(3) 0.0017(4) 0.0004(4) 0 0
O1 O2- 0.0061(2) 0.0061(2) 0.0044(2) -.0020(2) 0 0
#End of data_202836-ICSD

###############################################################################
# Burdett, J.K.;Miller, G.J.;Richardson, J.W.jr.;Smith, J.V. (1988)
# Journal of the American Chemical Society 110, 8064-8071
# Low-Temperature Neutron Powder Diffraction Study of Cr O2 and the Validity \
# of the Jahn-Teller Viewpoint
# 
# CIF by ICSD-for-WWW,  Copyright 2003 FIZ-Karlsruhe & A.W.Hewat (hewat@ill.fr)
# NOT TO BE PUBLISHED IN ANY FORM. See http://icsd.ill.fr/icsd/conditions.html
###############################################################################

data_202835-ICSD
_database_code_ICSD                202835
_audit_creation_date               1989-06-19
_chemical_name_systematic
'Chromium(IV) dioxide'
_chemical_formula_structural       
'Cr O2'
_chemical_formula_sum              
'Cr1 O2'
_publ_section_title                
'Cr1 O2'
loop_
_citation_id
_citation_journal_abbrev
_citation_year
_citation_journal_volume
_citation_page_first
_citation_page_last
_citation_journal_id_ASTM
primary 'Journal of the American Chemical Society' 1988 110 8064 8071 JACSAT
loop_
_publ_author_name
Burdett, J.K.;Miller, G.J.;Richardson, J.W.jr.;Smith, J.V.
_cell_length_a                     4.4190(3)
_cell_length_b                     4.4190(3)
_cell_length_c                     2.9154(1)
_cell_angle_alpha                  90.
_cell_angle_beta                   90.
_cell_angle_gamma                  90.
_cell_volume                       56.9307
_cell_formula_units_Z              2.000
_symmetry_space_group_name_H-M     'P 42/m n m'
_symmetry_Int_Tables_number        136
loop_
_symmetry_equiv_pos_site_id
_symmetry_equiv_pos_as_xyz
   1   '-y+1/2, x+1/2, -z+1/2'
   2   'y+1/2, -x+1/2, -z+1/2'
   3   'y, x, -z'
   4   '-y, -x, -z'
   5   'y+1/2, -x+1/2, z+1/2'
   6   '-y+1/2, x+1/2, z+1/2'
   7   '-y, -x, z'
   8   'y, x, z'
   9   'x+1/2, -y+1/2, -z+1/2'
  10   '-x+1/2, y+1/2, -z+1/2'
  11   'x, y, -z'
  12   '-x, -y, -z'
  13   '-x+1/2, y+1/2, z+1/2'
  14   'x+1/2, -y+1/2, z+1/2'
  15   '-x, -y, z'
  16   'x, y, z'
loop_
_atom_type_symbol
_atom_type_oxidation_number
Cr4+     4.
O2-     -2.
loop_
_atom_site_label
_atom_site_type_symbol
_atom_site_symmetry_multiplicity
_atom_site_Wyckoff_symbol
_atom_site_fract_x
_atom_site_fract_y
_atom_site_fract_z
_atom_site_B_iso_or_equiv
_atom_site_occupancy
Cr1 Cr4+ 2 a 0 0 0 0. 1.
O1 O2- 4 f 0.3026(3) 0.3026(3) 0 0. 1.
loop_
_atom_site_aniso_label
_atom_site_aniso_type_symbol
_atom_site_aniso_U_11
_atom_site_aniso_U_22
_atom_site_aniso_U_33
_atom_site_aniso_U_12
_atom_site_aniso_U_13
_atom_site_aniso_U_23
Cr1 Cr4+ 0.0055(2) 0.0055(2) 0.0042(2) 0.0003(2) 0 0
O1 O2- 0.0068(4) 0.0068(4) 0.0055(6) -.0011(6) 0 0
#End of data_202835-ICSD

###############################################################################
# Sawada, H. (1994)
# Materials Research Bulletin 29, 239-245
# Residual electron density study of chromium sesquioxide by crystal \
# structure and scattering factor refinement
# 
# CIF by ICSD-for-WWW,  Copyright 2003 FIZ-Karlsruhe & A.W.Hewat (hewat@ill.fr)
# NOT TO BE PUBLISHED IN ANY FORM. See http://icsd.ill.fr/icsd/conditions.html
###############################################################################

data_75577-ICSD
_database_code_ICSD                75577
_audit_creation_date               1996-04-22
_chemical_name_systematic
'Chromium oxide'
_chemical_formula_structural       
'Cr2 O3'
_chemical_formula_sum              
'Cr2 O3'
_publ_section_title                
'Cr2 O3'
loop_
_citation_id
_citation_journal_abbrev
_citation_year
_citation_journal_volume
_citation_page_first
_citation_page_last
_citation_journal_id_ASTM
primary 'Materials Research Bulletin' 1994 29 239 245 MRBUAC
loop_
_publ_author_name
Sawada, H.
_cell_length_a                     4.9570(3)
_cell_length_b                     4.9570(3)
_cell_length_c                     13.5923(2)
_cell_angle_alpha                  90.
_cell_angle_beta                   90.
_cell_angle_gamma                  120.
_cell_volume                       289.2405
_cell_formula_units_Z              6.000
_symmetry_space_group_name_H-M     'R -3 c'
_symmetry_Int_Tables_number        167
_refine_ls_R_factor_all            0.0127
loop_
_symmetry_equiv_pos_site_id
_symmetry_equiv_pos_as_xyz
   1   'x-y, -y, -z+1/2'
   2   '-x, -x+y, -z+1/2'
   3   'y, x, -z+1/2'
   4   'x-y, x, -z'
   5   'y, -x+y, -z'
   6   '-x, -y, -z'
   7   '-x+y, y, z+1/2'
   8   'x, x-y, z+1/2'
   9   '-y, -x, z+1/2'
  10   '-x+y, -x, z'
  11   '-y, x-y, z'
  12   'x, y, z'
  13   'x-y+2/3, -y+1/3, -z+5/6'
  14   '-x+2/3, -x+y+1/3, -z+5/6'
  15   'y+2/3, x+1/3, -z+5/6'
  16   'x-y+2/3, x+1/3, -z+1/3'
  17   'y+2/3, -x+y+1/3, -z+1/3'
  18   '-x+2/3, -y+1/3, -z+1/3'
  19   '-x+y+2/3, y+1/3, z+5/6'
  20   'x+2/3, x-y+1/3, z+5/6'
  21   '-y+2/3, -x+1/3, z+5/6'
  22   '-x+y+2/3, -x+1/3, z+1/3'
  23   '-y+2/3, x-y+1/3, z+1/3'
  24   'x+2/3, y+1/3, z+1/3'
  25   'x-y+1/3, -y+2/3, -z+1/6'
  26   '-x+1/3, -x+y+2/3, -z+1/6'
  27   'y+1/3, x+2/3, -z+1/6'
  28   'x-y+1/3, x+2/3, -z+2/3'
  29   'y+1/3, -x+y+2/3, -z+2/3'
  30   '-x+1/3, -y+2/3, -z+2/3'
  31   '-x+y+1/3, y+2/3, z+1/6'
  32   'x+1/3, x-y+2/3, z+1/6'
  33   '-y+1/3, -x+2/3, z+1/6'
  34   '-x+y+1/3, -x+2/3, z+2/3'
  35   '-y+1/3, x-y+2/3, z+2/3'
  36   'x+1/3, y+2/3, z+2/3'
loop_
_atom_type_symbol
_atom_type_oxidation_number
Cr3+     3.
O2-     -2.
loop_
_atom_site_label
_atom_site_type_symbol
_atom_site_symmetry_multiplicity
_atom_site_Wyckoff_symbol
_atom_site_fract_x
_atom_site_fract_y
_atom_site_fract_z
_atom_site_B_iso_or_equiv
_atom_site_occupancy
Cr1 Cr3+ 12 c 0 0 0.34751(2) 0.200(4) 1.
O1 O2- 18 e 0.3057(2) 0 0.25 0.35(3) 1.
#End of data_75577-ICSD

###############################################################################
# Norby, P.;Christensen, A.N.;Fjellvag, H.;Nielsen, M. (1991)
# Journal of Solid State Chemistry 94, 281-293
# The crystal structure of Cr8O21 determined from powder diffraction data: \
# thermal transformation and magnetic properties ofa chromium-chromate-tetrachromate
# 
# CIF by ICSD-for-WWW,  Copyright 2003 FIZ-Karlsruhe & A.W.Hewat (hewat@ill.fr)
# NOT TO BE PUBLISHED IN ANY FORM. See http://icsd.ill.fr/icsd/conditions.html
###############################################################################

data_71297-ICSD
_database_code_ICSD                71297
_audit_creation_date               1993-01-06
_chemical_name_systematic
'Dichromium bis(chromate) tetrachromate'
_chemical_formula_structural       
'Cr2 (Cr O4)2 (Cr4 O13)'
_chemical_formula_sum              
'Cr8 O21'
_publ_section_title                
'Cr8 O21'
loop_
_citation_id
_citation_journal_abbrev
_citation_year
_citation_journal_volume
_citation_page_first
_citation_page_last
_citation_journal_id_ASTM
primary 'Journal of Solid State Chemistry' 1991 94 281 293 JSSCBI
loop_
_publ_author_name
Norby, P.;Christensen, A.N.;Fjellvag, H.;Nielsen, M.
_cell_length_a                     5.433(1)
_cell_length_b                     6.557(1)
_cell_length_c                     12.117(2)
_cell_angle_alpha                  106.36(1)
_cell_angle_beta                   95.73(1)
_cell_angle_gamma                  77.96(1)
_cell_volume                       404.6808
_cell_formula_units_Z              1.000
_symmetry_space_group_name_H-M     'P -1'
_symmetry_Int_Tables_number        2
_refine_ls_R_factor_all            0.0488
loop_
_symmetry_equiv_pos_site_id
_symmetry_equiv_pos_as_xyz
   1   '-x, -y, -z'
   2   'x, y, z'
loop_
_atom_type_symbol
_atom_type_oxidation_number
Cr3+     3.
Cr6+     6.
O2-     -2.
loop_
_atom_site_label
_atom_site_type_symbol
_atom_site_symmetry_multiplicity
_atom_site_Wyckoff_symbol
_atom_site_fract_x
_atom_site_fract_y
_atom_site_fract_z
_atom_site_B_iso_or_equiv
_atom_site_occupancy
Cr1 Cr3+ 2 i 0.859(3) 0.211(2) 0.068(1) 1.5(1) 1.
Cr2 Cr6+ 2 i 0.280(2) 0.234(2) 0.898(1) 1.7(1) 1.
Cr3 Cr6+ 2 i 0.358(2) 0.377(2) 0.258(1) 2.1(1) 1.
Cr4 Cr6+ 2 i 0.721(3) 0.799(2) 0.528(1) 3.2(1) 1.
O1 O2- 2 i 0.800(1) 0.504(1) 0.060(1) 1.5(1) 1.
O2 O2- 2 i 0.426(1) 0.835(1) 0.049(1) 1.5(1) 1.
O3 O2- 1 f 0.5 0 0.5 8.6(1) 1.
O4 O2- 2 i 0.127(2) 0.250(1) 0.182(1) 1.4(1) 1.
O5 O2- 2 i 0.381(1) 0.727(1) 0.812(1) 1.6(1) 1.
O6 O2- 2 i 0.696(1) 0.859(1) 0.243(1) 2.6(1) 1.
O7 O2- 2 i 0.911(1) 0.899(1) 0.057(1) 0.6(1) 1.
O8 O2- 2 i 0.383(2) 0.358(1) 0.397(1) 2.2(1) 1.
O9 O2- 2 i 0.038(2) 0.115(2) 0.406(1) 7.5(1) 1.
O10 O2- 2 i 0.183(2) 0.372(1) 0.591(1) 3.4(1) 1.
O11 O2- 2 i 0.261(2) 0.632(1) 0.255(1) 3.4(1) 1.
#End of data_71297-ICSD

###############################################################################
# Wilhelmi, K.A. (1965)
# Acta Chemica Scandinavica (1-27,1973-42,1988) 19, 165-176
# The Crystal Structure of Cr5 O12
# 
# CIF by ICSD-for-WWW,  Copyright 2003 FIZ-Karlsruhe & A.W.Hewat (hewat@ill.fr)
# NOT TO BE PUBLISHED IN ANY FORM. See http://icsd.ill.fr/icsd/conditions.html
###############################################################################

data_24299-ICSD
_database_code_ICSD                24299
_audit_creation_date               1986-09-25
_chemical_name_systematic
'Chromium oxide (5/12)'
_chemical_formula_structural       
'Cr5 O12'
_chemical_formula_sum              
'Cr5 O12'
_publ_section_title                
'Cr5 O12'
loop_
_citation_id
_citation_journal_abbrev
_citation_year
_citation_journal_volume
_citation_page_first
_citation_page_last
_citation_journal_id_ASTM
primary 'Acta Chemica Scandinavica (1-27,1973-42,' 1965 19 165 176 ACSAA4
loop_
_publ_author_name
Wilhelmi, K.A.
_cell_length_a                     12.044
_cell_length_b                     8.212
_cell_length_c                     8.177
_cell_angle_alpha                  90.
_cell_angle_beta                   90.
_cell_angle_gamma                  90.
_cell_volume                       808.7502
_cell_formula_units_Z              4.000
_symmetry_space_group_name_H-M     'P b c n'
_symmetry_Int_Tables_number        60
_refine_ls_R_factor_all            0.0992
loop_
_symmetry_equiv_pos_site_id
_symmetry_equiv_pos_as_xyz
   1   'x, -y, z+1/2'
   2   '-x+1/2, y+1/2, z'
   3   'x+1/2, y+1/2, -z+1/2'
   4   '-x, -y, -z'
   5   '-x, y, -z+1/2'
   6   'x+1/2, -y+1/2, -z'
   7   '-x+1/2, -y+1/2, z+1/2'
   8   'x, y, z'
loop_
_atom_type_symbol
_atom_type_oxidation_number
Cr6+     6.
Cr3+     3.
O2-     -2.
loop_
_atom_site_label
_atom_site_type_symbol
_atom_site_symmetry_multiplicity
_atom_site_Wyckoff_symbol
_atom_site_fract_x
_atom_site_fract_y
_atom_site_fract_z
_atom_site_B_iso_or_equiv
_atom_site_occupancy
Cr1 Cr6+ 4 c 0 0.3939(6) 0.25 0.52 1.
Cr2 Cr6+ 8 d 0.1719(3) 0.8878(4) 0.4768(4) 0.47 1.
Cr3 Cr3+ 8 d 0.0857(3) 0.7517(6) 0.1119(3) 0.32 1.
O1 O2- 8 d 0.2454(14) 0.7314(19) 0.0906(14) 0.26 1.
O2 O2- 8 d 0.0750(11) 0.7736(20) 0.3535(16) 0.36 1.
O3 O2- 8 d 0.1003(11) 0.9899(23) 0.1032(17) 0.7 1.
O4 O2- 8 d 0.0806(13) 0.5080(24) 0.1356(17) 0.81 1.
O5 O2- 8 d 0.0707(12) 0.2700(23) 0.3741(16) 0.79 1.
O6 O2- 8 d 0.2538(15) 0.4894(20) 0.3625(14) 0.65 1.
#End of data_24299-ICSD

###############################################################################
# Stephens, J.S.;Cruickshank, D.W.J. (1970)
# Acta Crystallographica B (24,1968-38,1982) 26, 222-226
# The crystal structure of (Cr O3)infinite
# 
# CIF by ICSD-for-WWW,  Copyright 2003 FIZ-Karlsruhe & A.W.Hewat (hewat@ill.fr)
# NOT TO BE PUBLISHED IN ANY FORM. See http://icsd.ill.fr/icsd/conditions.html
###############################################################################

data_16031-ICSD
_database_code_ICSD                16031
_audit_creation_date               1986-09-25
_chemical_name_systematic
'Chromium(VI) oxide'
_chemical_formula_structural       
'Cr O3'
_chemical_formula_sum              
'Cr1 O3'
_publ_section_title                
'Cr1 O3'
loop_
_citation_id
_citation_journal_abbrev
_citation_year
_citation_journal_volume
_citation_page_first
_citation_page_last
_citation_journal_id_ASTM
primary 'Acta Crystallographica B (24,1968-38,198' 1970 26 222 226 ACBCAR
loop_
_publ_author_name
Stephens, J.S.;Cruickshank, D.W.J.
_cell_length_a                     4.789(5)
_cell_length_b                     8.557(5)
_cell_length_c                     5.743(4)
_cell_angle_alpha                  90.
_cell_angle_beta                   90.
_cell_angle_gamma                  90.
_cell_volume                       235.3502
_cell_formula_units_Z              4.000
_symmetry_space_group_name_H-M     'C 2 c m'
_symmetry_Int_Tables_number        40
_refine_ls_R_factor_all            0.0235
loop_
_symmetry_equiv_pos_site_id
_symmetry_equiv_pos_as_xyz
   1   'x, -y, z+1/2'
   2   'x, y, -z+1/2'
   3   'x, -y, -z'
   4   'x, y, z'
   5   'x+1/2, -y+1/2, z+1/2'
   6   'x+1/2, y+1/2, -z+1/2'
   7   'x+1/2, -y+1/2, -z'
   8   'x+1/2, y+1/2, z'
loop_
_atom_type_symbol
_atom_type_oxidation_number
Cr6+     6.
O2-     -2.
loop_
_atom_site_label
_atom_site_type_symbol
_atom_site_symmetry_multiplicity
_atom_site_Wyckoff_symbol
_atom_site_fract_x
_atom_site_fract_y
_atom_site_fract_z
_atom_site_B_iso_or_equiv
_atom_site_occupancy
Cr1 Cr6+ 4 b 0 0.40324(5) 0.25 0. 1.
O1 O2- 4 a 0.1159(8) 0.5 0 0. 1.
O2 O2- 4 b 0.1245(14) 0.2323(5) 0.25 0. 1.
O3 O2- 4 b 0.3284(9) 0.3922(5) 0.25 0. 1.
loop_
_atom_site_aniso_label
_atom_site_aniso_type_symbol
_atom_site_aniso_U_11
_atom_site_aniso_U_22
_atom_site_aniso_U_33
_atom_site_aniso_U_12
_atom_site_aniso_U_13
_atom_site_aniso_U_23
Cr1 Cr6+ 0.0325(3) 0.0265(3) 0.0130(5) 0.0000(4) 0 0
O1 O2- 0.0442(13) 0.0493(17) 0.0164(9) 0 0 0.0075(9)
O2 O2- 0.0541(24) 0.0295(15) 0.0456(18) 0.0093(17) 0 0
O3 O2- 0.0373(16) 0.0548(25) 0.0430(22) 0.0055(14) 0 0
#End of data_16031-ICSD

###############################################################################
# Porta, P.;Marezio, M.;Remeika, J.P.;Dernier, P.D. (1972)
# Materials Research Bulletin 7, 157-162
# Chromium dioxide. High pressure synthesis and bond lengths
# 
# CIF by ICSD-for-WWW,  Copyright 2003 FIZ-Karlsruhe & A.W.Hewat (hewat@ill.fr)
# NOT TO BE PUBLISHED IN ANY FORM. See http://icsd.ill.fr/icsd/conditions.html
###############################################################################

data_9423-ICSD
_database_code_ICSD                9423
_audit_creation_date               1980-01-01
_chemical_name_systematic
'Chromium(IV) oxide - prepared under pressure of 36kbar'
_chemical_formula_structural       
'Cr O2'
_chemical_formula_sum              
'Cr1 O2'
_publ_section_title                
'Cr1 O2'
loop_
_citation_id
_citation_journal_abbrev
_citation_year
_citation_journal_volume
_citation_page_first
_citation_page_last
_citation_journal_id_ASTM
primary 'Materials Research Bulletin' 1972 7 157 162 MRBUAC
loop_
_publ_author_name
Porta, P.;Marezio, M.;Remeika, J.P.;Dernier, P.D.
_cell_length_a                     4.4190(3)
_cell_length_b                     4.4190(3)
_cell_length_c                     2.9154(1)
_cell_angle_alpha                  90.
_cell_angle_beta                   90.
_cell_angle_gamma                  90.
_cell_volume                       56.9307
_cell_formula_units_Z              2.000
_symmetry_space_group_name_H-M     'P 42/m n m'
_symmetry_Int_Tables_number        136
_refine_ls_R_factor_all            0.0172
loop_
_symmetry_equiv_pos_site_id
_symmetry_equiv_pos_as_xyz
   1   '-y+1/2, x+1/2, -z+1/2'
   2   'y+1/2, -x+1/2, -z+1/2'
   3   'y, x, -z'
   4   '-y, -x, -z'
   5   'y+1/2, -x+1/2, z+1/2'
   6   '-y+1/2, x+1/2, z+1/2'
   7   '-y, -x, z'
   8   'y, x, z'
   9   'x+1/2, -y+1/2, -z+1/2'
  10   '-x+1/2, y+1/2, -z+1/2'
  11   'x, y, -z'
  12   '-x, -y, -z'
  13   '-x+1/2, y+1/2, z+1/2'
  14   'x+1/2, -y+1/2, z+1/2'
  15   '-x, -y, z'
  16   'x, y, z'
loop_
_atom_type_symbol
_atom_type_oxidation_number
Cr4+     4.
O2-     -2.
loop_
_atom_site_label
_atom_site_type_symbol
_atom_site_symmetry_multiplicity
_atom_site_Wyckoff_symbol
_atom_site_fract_x
_atom_site_fract_y
_atom_site_fract_z
_atom_site_B_iso_or_equiv
_atom_site_occupancy
Cr1 Cr4+ 2 a 0 0 0 0. 1.
O1 O2- 4 f 0.3048(1) 0.3048(1) 0 0. 1.
loop_
_atom_site_aniso_label
_atom_site_aniso_type_symbol
_atom_site_aniso_Beta_11
_atom_site_aniso_Beta_22
_atom_site_aniso_Beta_33
_atom_site_aniso_Beta_12
_atom_site_aniso_Beta_13
_atom_site_aniso_Beta_23
Cr1 Cr4+ 0.0060(1) 0.0060(1) 0.0091(4) 0.00016(4) 0 0
O1 O2- 0.0047(2) 0.0047(2) 0.0081(5) 0.0020(1) 0 0
#End of data_9423-ICSD

