# CIF file generated by openbabel 2.2.1, see http://openbabel.sf.net
data_I
_cell_length_a 5.7699
_cell_length_b 5.8143
_cell_length_c 8.1785
_cell_angle_alpha 90
_cell_angle_beta 90
_cell_angle_gamma 90
_symmetry_space_group_name_H-M 'p b n m'
loop_
    _atom_site_type_symbol
    _atom_site_label
    _atom_site_Cartn_x
    _atom_site_Cartn_y
    _atom_site_Cartn_z
Sr   Sr1     0.03808   -2.73505    2.04462
Hf   Hf2     0.00000    0.00000    0.00000
O    O3    -0.42293   -0.10756    2.04462
O    O4     1.23995    1.65649    0.31569
