data_global
_cell_length_a 4.167
_cell_length_b 4.167
_cell_length_c 4.167
_cell_angle_alpha 90
_cell_angle_beta 90
_cell_angle_gamma 90
_space_group_IT_number 221
loop_
    _atom_site_type_symbol
    _atom_site_fract_x
    _atom_site_fract_y
    _atom_site_fract_z
Sr     -0.5   -0.5   -0.5
Zr      0.0    0.0    0.0
O      -0.5    0.0    0.0
