data_global
_cell_length_a 4.167
_cell_length_b 4.167
_cell_length_c 4.167
_cell_angle_alpha 90
_cell_angle_beta 90
_cell_angle_gamma 90
_symmetry_space_group_name_H-M 'P 4/m 3 2/m'
loop_
    _atom_site_type_symbol
    _atom_site_fract_x
    _atom_site_fract_y
    _atom_site_fract_z
Sr     -2.083560545   -2.083560545   -2.083560545
Zr      0.000000000    0.000000000    0.000000000
O      -2.083560545    0.000000000    0.000000000
