data_global
_cell_length_a 4.916
_cell_length_b 4.916
_cell_length_c 5.4054
_cell_angle_alpha 90
_cell_angle_beta 90
_cell_angle_gamma 120
_symmetry_space_group_name_H-M 'P 32 2 1'
loop_
_atom_site_label
_atom_site_fract_x
_atom_site_fract_y
_atom_site_fract_z
Si   0.46970   0.00000   0.00000
O   0.41350   0.26690   0.11910
